40
Properties=species:S:1:pos:R:3 pbc="F F F"
H        0.55406189      -0.61340714       1.76516342
H        2.04517746      -1.11644173       0.85604477
H        0.47427177      -0.77375603       0.05268860
C        0.93688393      -1.24250031       0.94989777
H        0.46832085      -3.15594101       0.21794891
H        1.07456779      -3.16434288       1.94084930
C        0.42211723      -2.62918282       1.21535873
H       -1.30166054      -1.93636322       2.39923096
H       -1.26909637      -3.66719246       1.93756485
C       -1.04489326      -2.66396141       1.61689377
H       -1.76677132      -1.26506424       0.14245987
H       -1.86501884      -2.90472221      -0.45792007
C       -2.03065491      -2.26818466       0.42661667
H       -3.62624741      -3.53366089       1.22371292
H       -3.61362648      -1.87579155       1.78529358
C       -3.46363449      -2.52363586       0.88404465
H       -4.56159782      -1.04426765      -0.41443253
H       -4.34597969      -2.66787910      -1.09279633
H       -5.56379700      -2.40732574       0.12946701
C       -4.52492809      -2.11127281      -0.19589615
H        4.13674927       0.40652847      -2.70645905
H        4.92684364       1.41110802      -1.60281754
H        4.78091431      -0.33266258      -1.35946655
C        4.23082542       0.60005569      -1.64344406
H        2.36975288      -0.06213951      -0.87226868
H        3.25749397       0.86043930       0.27080154
C        2.99155235       0.81806374      -0.77803040
H        1.80449677       1.83866119      -2.30889893
H        2.92069626       2.97563362      -1.28101730
C        2.22385979       2.04987717      -1.26022339
H        0.33308411       1.52998352      -0.47971725
H        1.39270210       2.32131767       0.68796158
C        1.05442619       2.38892555      -0.37267685
H        1.05049706       4.53670311      -0.34483719
H        0.10490036       3.72871971      -1.70836258
C        0.39672470       3.71719933      -0.61727905
H       -1.54836845       4.66559792      -0.08554840
H       -1.64091682       2.88523102      -0.24177170
H       -0.81897354       3.53462791       1.19765091
C       -0.96472740       3.69093895       0.12397766
