40
Properties=species:S:1:pos:R:3 pbc="F F F"
H       -0.35819244       4.05065536       1.99484825
H        0.30090904       3.57620502       3.66375542
H        0.99180984       2.85141730       2.13733864
C        0.06916618       3.22252250       2.63605309
H       -1.76366234       2.50037980       3.41586876
H       -1.40937042       1.81665492       1.78057861
C       -0.96617317       2.10428309       2.78915787
H       -0.01148224       0.77199602       4.22101212
H        0.36379242       0.57866180       2.55522919
C       -0.46205521       0.73716640       3.23887444
H       -2.38582802      -0.25865555       3.83941078
H       -1.94910431      -0.23912883       2.16558266
C       -1.51546860      -0.36097491       3.16783905
H       -0.25383759      -1.79598284       2.28494644
H       -0.50530624      -1.97336984       4.00580788
C       -1.03136826      -1.77008152       3.09952927
H       -2.72772598      -2.43821287       2.01978302
H       -1.80008507      -3.76507473       2.71109962
H       -2.83690643      -2.82567716       3.80150986
C       -2.17598152      -2.72240114       2.91446686
H        1.19429207       2.69617772      -0.24562454
H        2.54657936       1.68173027      -1.01708984
H        1.23220825       2.46458745      -1.94135380
C        1.38911819       1.91501594      -1.01556683
H        0.32874680       0.35507619       0.07862186
H       -0.58242035       0.89312243      -1.28419495
C        0.47754478       0.69177687      -0.94909096
H        0.32572365      -1.36417508      -1.68932247
H        1.87327194      -0.79369783      -1.63619709
C        0.92396927      -0.48950154      -1.87811565
H       -0.27157974      -0.06641352      -3.65848827
H        1.52804756       0.43192434      -3.65892220
C        0.79612160      -0.39882523      -3.38022518
H        2.18882179      -1.96149278      -3.86732483
H        0.48189926      -2.48359823      -3.96783066
C        1.13871193      -1.68237913      -4.20302010
H        0.83354187      -2.45582891      -6.20879030
H        0.48300362      -0.68465906      -6.13399220
H        2.29176712      -1.25379252      -6.04743385
C        1.24765015      -1.55543196      -5.73883438
