40
Properties=species:S:1:pos:R:3 pbc="F F F"
H        0.58887863      -3.19002628       0.62663603
H        0.11329222      -4.18675423       2.03551722
H       -1.02051258      -4.26545143       0.60167217
C       -0.28396368      -3.58660412       1.16738510
H       -2.06464171      -2.95294189       2.26530886
H       -0.66296148      -1.82782841       2.31834841
C       -1.21430254      -2.49855042       1.65627003
H       -2.49541044      -2.36064911      -0.10677338
H       -1.09244013      -1.19448090      -0.14296651
C       -1.81755424      -1.69308472       0.50248289
H       -3.63746977      -0.62652206       0.70642662
H       -2.71928883      -0.73244762       2.23202658
C       -2.62975049      -0.62135410       1.13307524
H       -1.21346521       1.12658119       1.43518925
H       -1.87100267       0.93602943      -0.29071903
C       -2.13367820       0.88229370       0.79725456
H       -2.82290435       2.86005783       1.32166433
H       -4.13951969       1.94727898       0.42514515
H       -3.78281450       1.70808029       2.08846521
C       -3.30592251       1.88227272       1.09881926
H        2.59295845      -2.06955719       0.98537588
H        2.31163359      -2.64046764      -0.60003328
H        3.88447428      -2.09116936      -0.22915363
C        2.86085558      -1.82564545      -0.06632710
H        1.73699713      -0.08822441       0.26443386
H        3.48930311       0.26513290      -0.07268929
C        2.62495184      -0.34513855      -0.36001778
H        1.16882658      -0.32196236      -2.07640457
H        2.91898203      -0.21723366      -2.61771202
C        2.17599440       0.09858322      -1.80745459
H        3.10162878       2.03928757      -1.51669574
H        2.15441370       1.96462059      -2.92780018
C        2.14772892       1.62954330      -1.90386033
H        0.13473654       1.64925575      -1.36217833
H        1.32137728       2.20130157      -0.06510854
C        1.02710485       2.29649544      -1.09531903
H        1.54804087       4.42857170      -1.23887205
H        0.45002079       3.60586739      -2.58208632
H       -0.19237375       4.07814598      -1.07123590
C        0.74779654       3.73664093      -1.52810383
