40
Properties=species:S:1:pos:R:3 pbc="F F F"
H        3.64131355      -3.27097702       0.69803619
H        5.05067635      -2.28574562       1.61053085
H        4.30915833      -3.80295753       2.25883102
C        4.07492638      -2.93982315       1.67027664
H        2.01114273      -2.75631905       2.80181503
H        3.39427948      -1.70273018       3.24170685
C        2.92903709      -2.17204475       2.34646225
H        2.00498199      -1.30587196       0.50045776
H        3.16785622      -0.27190399       1.49695396
C        2.35795784      -1.02451134       1.50284576
H        0.24371147      -1.37476158       1.90224838
H        0.97249985      -0.43588448       3.13349915
C        0.94939995      -0.60929298       2.05865860
H        1.44158745       1.42907524       1.63847351
H        0.45635414       0.58373833       0.29626083
C        0.61336517       0.71711349       1.42394066
H       -0.79960823       2.36903000       1.82295227
H       -1.55281639       0.78074455       1.67293167
H       -0.65711021       1.03118896       3.09457016
C       -0.69661522       1.29690742       2.03258896
H       -0.56057549       3.62078285      -0.57602692
H       -1.77810097       4.43984413      -1.49065781
H       -2.32497978       2.83581352      -0.78439713
C       -1.40744591       3.38509369      -1.21293640
H       -1.88903809       2.74191093      -3.28144264
H       -0.16645241       3.25848770      -2.99058533
C       -1.02294922       2.67817688      -2.58351135
H        0.07729149       0.74541283      -1.95002747
H       -0.57361984       1.01012993      -3.60921478
C       -0.78378487       1.19156075      -2.56370735
H       -2.73364449       0.93994331      -1.71726990
H       -2.66313553      -0.00338364      -3.18203354
C       -2.00701141       0.29395103      -2.25154114
H       -0.80210304      -1.46029854      -1.95877838
H       -1.40374565      -0.68468094      -0.40122032
C       -1.63393784      -0.95631790      -1.43389130
H       -3.50674820      -1.53106880      -0.50843811
H       -3.40166187      -1.91878319      -2.27229691
H       -2.45499992      -2.91970253      -1.08653831
C       -2.87555695      -1.92188072      -1.34947968
