40
Properties=species:S:1:pos:R:3 pbc="F F F"
H        2.78393984       0.06139135       3.57041931
H        3.18342447      -0.10798573       1.85669708
H        2.56140757       1.50075388       2.52120399
C        2.44591665       0.37080145       2.54166031
H        0.38467979       0.28816557       2.97063637
H        0.77321720       0.49077177       1.15858459
C        1.06455088      -0.02805114       2.10199165
H        1.23509026      -1.95705843       2.98588371
H        1.67989588      -1.85970759       1.15774155
C        0.93283987      -1.54284811       1.95331573
H       -1.12097836      -1.33250356       2.32038307
H       -0.73406744      -1.59287071       0.56497955
C       -0.50828600      -1.89787698       1.64108849
H       -1.67382669      -3.70685172       1.10778427
H        0.01769638      -3.80740976       1.03951263
C       -0.77051020      -3.41837168       1.64775848
H       -1.38056517      -4.99575758       3.01826477
H        0.22435427      -4.21684408       3.44886017
H       -1.24730396      -3.33894587       3.79362679
C       -0.84148836      -4.03309345       3.02996445
H        1.58400440      -0.11800289      -1.11769104
H        2.05185366       0.01008296      -2.89664841
H        3.01347780       0.85706902      -1.61713791
C        1.99391556       0.56389666      -1.96471596
H        0.84836245       2.18032551      -1.25125504
H        1.56024837       2.57201481      -2.94310188
C        1.12554598       1.72819662      -2.24243164
H       -0.64847755       0.49793196      -2.21750259
H        0.16417265       0.58792782      -3.79234886
C       -0.13891172       1.19690657      -2.93106270
H       -0.66477537       2.91939449      -3.95460320
H       -1.95076847       1.64589405      -3.86974716
C       -1.17977810       2.17842293      -3.32529640
H       -1.11305332       3.59857225      -1.65864944
H       -2.64777088       3.56870365      -2.66067886
C       -1.85411692       2.92912483      -2.19805336
H       -1.96760869       1.38523769      -0.60747528
H       -2.98947763       2.96514368      -0.42617798
H       -3.52749777       1.67969370      -1.58302307
C       -2.66933513       2.17773485      -1.17268372
