40
Properties=species:S:1:pos:R:3 pbc="F F F"
H        4.68872833       1.86802101       0.23190880
H        3.91318130       0.64123344      -0.81409264
H        3.92621803       2.28074265      -1.33297729
C        3.82656097       1.68415070      -0.43164062
H        2.32687759       2.92528915       0.44039154
H        1.72649002       1.64583206      -0.68847656
C        2.45758057       1.87535858       0.13357162
H        1.39549637       1.30768967       1.94938278
H        3.24127960       1.29294014       2.05324173
C        2.30646896       1.04527855       1.39976501
H        1.58702087      -0.65497589       0.44239044
H        3.29260254      -0.82372856       0.81969261
C        2.33512497      -0.43436623       1.15370178
H        1.93542480      -2.26886368       2.23432541
H        2.80032921      -1.02616501       3.14660072
C        1.92105103      -1.17290878       2.50720406
H       -0.25121307      -0.92977142       2.45709801
H        0.27621651      -1.47479248       4.11963844
H        0.76803398       0.20456314       3.47020340
C        0.59409523      -0.90304184       3.17082787
H       -2.36443233       1.36019897      -3.04798889
H       -1.00465965       2.31632423      -2.42390823
H       -0.72605801       1.62159729      -4.07310104
C       -1.20718002       1.44147682      -3.10148621
H       -0.70639420      -0.74938965      -3.20451546
H        0.51778221       0.26732445      -2.40301895
C       -0.60680676       0.15775681      -2.50922966
H       -0.95177269       0.57593727      -0.34746552
H       -0.65379715      -1.12853241      -0.72137070
C       -1.12768936      -0.23188591      -1.12173653
H       -3.16125107       0.31927299      -1.38842773
H       -2.81034851      -1.38010597      -2.00352478
C       -2.58810902      -0.59256744      -1.16126823
H       -2.34062958      -1.73566628       0.69268608
H       -3.45971107      -0.21457100       0.70043182
C       -3.14589119      -1.18206978       0.13089180
H       -4.93572998      -2.17191124       0.85118294
H       -5.14367676      -1.06329536      -0.52346230
H       -4.19224072      -2.82645988      -0.73109245
C       -4.45896053      -1.86594582      -0.07630157
