40
Properties=species:S:1:pos:R:3 pbc="F F F"
H       -2.88463211      -1.29627037       2.41182327
H       -3.07920837      -2.04413223       0.70519257
H       -1.39438057      -1.76691628       1.37431717
C       -2.45310974      -1.34402847       1.39440536
H       -3.47581100       0.31551933       0.72449112
H       -1.93452644       0.65490532       1.48557663
C       -2.43626213       0.02634621       0.74909592
H       -0.95640564      -0.58495903      -0.54923248
H       -1.29274750       1.17599297      -0.73738480
C       -1.74684143       0.16489220      -0.58268738
H       -2.96595192      -1.05564308      -1.74260902
H       -3.42956734       0.76107979      -1.80426979
C       -2.60907173       0.01271629      -1.82532501
H       -0.98217583      -0.66069221      -2.99096680
H       -2.51203728      -0.30407524      -4.02175331
C       -1.85952377       0.08462906      -3.14911652
H       -1.90223503       2.26366425      -3.79016304
H       -0.56618118       1.65088844      -2.80161476
H       -0.66861343       1.31127739      -4.56772995
C       -1.22836685       1.41542244      -3.63109970
H        1.84806633       2.94888878      -1.64621735
H        0.59912300       2.82478714      -0.34409714
H        2.35628319       3.16570282      -0.00854874
C        1.63590431       2.54956436      -0.61182022
H        1.40021324       0.40782738      -1.28783989
H        3.00333214       0.83616257      -0.68680573
C        1.95286751       1.01608276      -0.50571442
H        0.50558853       0.42877769       1.07698822
H        1.97521019       1.34487724       1.56326294
C        1.57250786       0.53364182       0.87322998
H        2.06237602      -1.66230774       0.56836319
H        3.35204124      -0.74217796       1.27791214
C        2.28699684      -0.83017921       1.26961517
H        2.13432121      -0.35201645       3.39484024
H        0.77006149      -1.42706490       2.69278336
C        1.93747520      -1.19437981       2.68458176
H        2.25706673      -2.63781929       4.21288300
H        2.40487099      -3.22698021       2.45034790
H        3.70981407      -2.34916115       3.18364716
C        2.61362267      -2.41474342       3.19168854
