40
Properties=species:S:1:pos:R:3 pbc="F F F"
H       -1.09348261       0.42418480      -0.53371811
H        0.46721768       0.60122299      -1.53359032
H        0.36187458       1.34654617       0.10144806
C       -0.27422071       1.07442093      -0.83805847
H       -1.58280206       2.38696480      -2.18108368
H       -1.22740090       2.88825989      -0.43846130
C       -0.76123679       2.44128799      -1.34054184
H       -0.13086283       4.32601929      -2.11338043
H        0.67318845       3.01386070      -2.88599205
C        0.31761384       3.33852959      -1.86976051
H        2.03228498       2.47826767      -0.77041245
H        2.47514629       3.97597504      -1.66325188
C        1.65849853       3.48296356      -1.02669144
H        0.69626355       4.07911301       1.00474548
H        2.43653345       4.32916832       0.72925568
C        1.46715307       4.36397743       0.23180008
H        0.30039072       5.90600014      -0.76454735
H        0.99019766       6.34852600       0.85902405
H        2.02813888       6.27287102      -0.62294197
C        1.13366866       5.79595566      -0.12926674
H       -0.52499723      -3.04586411       4.87405205
H       -1.87901509      -3.55576897       3.95364380
H       -0.30664539      -4.67559719       4.07137489
C       -0.72364140      -3.57423973       3.99284744
H       -0.50411332      -1.90026283       2.62050438
H        0.94966698      -2.95449066       2.71304703
C       -0.16670334      -2.95424843       2.69517136
H       -1.79742980      -3.68924046       1.50294685
H       -0.51684403      -4.78650379       1.66289139
C       -0.70709205      -3.67306900       1.46892357
H       -0.29011810      -2.10965729      -0.00662994
H        0.95447421      -3.29619980       0.04404640
C       -0.12401319      -3.17554855       0.12876129
H       -0.69829512      -4.99004650      -1.07613182
H       -1.96631217      -3.80704498      -0.86185837
C       -0.89343894      -3.92193794      -1.00311279
H        0.34459233      -3.17873383      -2.74254227
H       -1.08698678      -3.90005112      -3.29044914
H       -1.30355418      -2.35741806      -2.52158737
C       -0.72771120      -3.32827187      -2.44036484
