40
Properties=species:S:1:pos:R:3 pbc="F F F"
H       -0.12493241       4.73220825       1.20273399
H       -1.43868303       4.93533707       0.12808609
H       -1.58023334       5.51092529       1.81665421
C       -1.22097564       4.71384430       1.17207146
H       -1.82213318       3.22228622       2.62829971
H       -3.04219151       3.36795425       1.22181892
C       -1.91540337       3.35128403       1.53976440
H       -1.56321967       1.19980621       1.11452675
H       -0.09913623       2.23449707       1.13362503
C       -1.19317186       2.25608063       0.80607986
H       -2.27971983       2.49942398      -1.19019890
H       -0.61195427       3.28885269      -1.07212067
C       -1.27541006       2.44170380      -0.74469376
H        0.41871881       1.17687607      -0.89343643
H       -0.93692458       0.22515869      -1.24796295
C       -0.51698041       1.24097061      -1.43533134
H       -1.05068028       1.99341965      -3.49218369
H        0.57805455       2.30338669      -3.06469536
H        0.06741083       0.48181152      -3.27241898
C       -0.19687927       1.50934982      -2.93022156
H        1.77626586      -1.17068481       3.77471924
H        0.20109022      -2.18800735       3.48301315
H        1.82301760      -2.95127106       3.66353607
C        1.31536889      -2.05445480       3.20616913
H        0.91685081      -1.20628548       1.22448540
H        2.66788697      -2.04518318       1.59414291
C        1.55322909      -2.02242088       1.71801567
H       -0.02711272      -3.39376068       1.51265907
H        1.58579087      -4.24961281       1.57484818
C        1.01361561      -3.38524818       1.11641502
H        2.25507402      -3.54051018      -0.56150627
H        0.76784015      -4.47259331      -0.81180191
C        1.12821198      -3.50894356      -0.42831802
H       -0.64671230      -2.35949516      -0.85906982
H        0.89253354      -1.38261414      -0.96442604
C        0.41833246      -2.39396286      -1.17061806
H        1.60901928      -2.52397156      -2.85247993
H        0.09307718      -3.49643898      -2.99231911
H       -0.07679653      -1.76049232      -3.00907135
C        0.53786445      -2.57920456      -2.63867378
