40
Properties=species:S:1:pos:R:3 pbc="F F F"
H       -0.04826736      -0.61799431       3.32319832
H       -0.88493538      -0.12480736       4.79200935
H       -1.78879929      -0.47260094       3.21093369
C       -0.89414787      -0.02659416       3.71038628
H       -1.89959049       1.79089928       3.05489159
H       -0.13719749       2.08748817       3.66589546
C       -0.79345131       1.41297722       3.07472229
H       -0.70492172       0.40991974       1.10631943
H        0.86276436       1.14056587       1.56896782
C       -0.17430878       1.24756813       1.67362976
H       -1.84123898       2.55209160       0.99302483
H       -0.38983536       3.44721031       1.16815948
C       -0.72918320       2.45622444       0.82937431
H        0.58530426       2.25601387      -0.80476952
H       -0.91431999       1.12716484      -0.87723541
C       -0.50689507       2.17115974      -0.62504005
H       -0.83347893       4.14671516      -1.26980209
H       -0.90025330       3.04193687      -2.68530273
H       -2.29964256       3.08585167      -1.41507339
C       -1.20642471       3.15056801      -1.55646133
H       -0.99645996      -3.79656410       1.75698090
H        0.73169518      -3.89186478       1.26251602
H       -0.11303139      -2.42152023       2.02030945
C       -0.16134453      -3.24227142       1.28753090
H       -0.69748116      -3.59954262      -0.71867180
H       -1.24696732      -2.05138206      -0.22565842
C       -0.36742592      -2.73043060      -0.13120079
H        1.68421364      -2.84706306      -0.80549622
H        1.09608841      -1.19902039      -0.20067406
C        0.87318039      -2.13264084      -0.80730820
H        0.14629555      -2.47663116      -2.89125061
H       -0.36112404      -1.05729866      -2.16259766
C        0.54351044      -1.67540932      -2.24647331
H        2.30361366      -1.64062119      -3.46435452
H        0.94844627      -0.45821953      -3.91300011
C        1.56283188      -0.87208176      -3.06945419
H        1.57437515       1.02099800      -1.95147705
H        2.68312645      -0.19391823      -1.36159706
H        3.02573395       0.75837708      -2.99218655
C        2.26956940       0.22477913      -2.32382965
