40
Properties=species:S:1:pos:R:3 pbc="F F F"
H       -0.61900711      -0.63668060      -2.71160507
H       -2.11556625      -1.14109039      -3.48199081
H       -2.07055092      -0.71804619      -1.76011086
C       -1.53427601      -1.18399239      -2.55888176
H       -2.31022644      -3.10785103      -1.99810028
H       -0.86435890      -3.10313225      -3.15357590
C       -1.33389091      -2.67290306      -2.26403046
H        0.51527786      -2.28520203      -1.22971916
H       -0.07558060      -3.93596840      -0.89047813
C       -0.43019009      -2.90750122      -1.00643921
H       -1.01758623      -1.09296799       0.30310440
H       -1.75379276      -2.70334244       0.77839470
C       -0.84125042      -2.24925804       0.38187981
H       -0.20379829      -2.16871643       2.44742393
H        0.49170971      -3.59062004       1.59567261
C        0.20668268      -2.51737404       1.45700073
H        2.18488121      -1.74150848       1.97894096
H        2.08620167      -2.33150864       0.33606339
H        1.22654343      -0.76144028       0.75185394
C        1.54607201      -1.77619553       1.08581924
H       -2.21062613       0.15470505       1.70077133
H       -3.01221609       1.75418091       1.78954315
H       -3.08474779       0.88024330       0.29714394
C       -2.43527079       1.07867432       1.18318367
H       -0.77289581       1.24425507      -0.32333565
H       -1.59120274       2.82889366       0.04503250
C       -1.22260571       1.86596298       0.51159477
H        0.17570782       1.12806320       2.07886505
H       -0.71687412       2.76411247       2.24968338
C       -0.10832787       2.08829117       1.55309486
H        1.08466530       3.80696106       1.05679131
H        1.97020054       2.43097687       1.72993088
C        1.15759277       2.74668121       0.96977043
H        1.96278381       1.14933968      -0.13055801
H        0.97496223       2.29409599      -1.12025070
C        1.71318054       2.23680878      -0.31519318
H        3.79197025       2.97965240       0.07647324
H        3.48727417       2.40025711      -1.59575462
H        2.74360466       3.90835762      -1.11382675
C        3.00556087       2.88479614      -0.70408630
