40
Properties=species:S:1:pos:R:3 pbc="F F F"
H        0.93880463       0.11231947       3.35456467
H       -0.67521286       0.70110130       2.86622047
H       -0.20328140       0.02402616       4.49870110
C       -0.08733940      -0.11811113       3.42989922
H        0.33339310      -2.13106513       3.47939110
H       -1.22060204      -2.09416986       3.25886345
C       -0.36259842      -1.51362801       2.91044998
H        0.68514252      -1.24244165       0.90998459
H       -1.07752609      -1.10440028       0.88585663
C       -0.27243233      -1.61870337       1.37101173
H        0.57751274      -3.58466053       1.09112358
H       -1.25412369      -3.53734446       1.35063171
C       -0.38643456      -3.04917288       0.86878586
H       -1.71519089      -2.95939684      -0.75678253
H        0.06163216      -2.45107293      -1.20250893
C       -0.60358620      -3.10634589      -0.59770966
H        0.76659966      -4.73748684      -0.81458473
H       -1.00408936      -5.20509481      -0.60469627
H       -0.45015717      -4.53727436      -2.25992012
C       -0.30537033      -4.51984978      -1.12013817
H        1.28821564       3.65838814       1.10112000
H        0.58229828       5.26928473       0.94272614
H       -0.35138512       4.03309870       1.79301643
C        0.33265877       4.22092676       0.91980171
H       -1.00534821       4.62505817      -0.71964455
H        0.58795738       4.05568790      -1.13985062
C       -0.22597504       3.88579369      -0.40712738
H       -1.69517136       2.38905382      -1.12186432
H       -0.98882294       2.11762333       0.54980087
C       -0.74991417       2.43263912      -0.52657890
H        1.21915245       1.60296822      -0.49924278
H       -0.18406105       0.38032484      -0.91313744
C        0.27000237       1.42517948      -1.08601761
H       -0.48258591       1.60852861      -3.15924644
H        0.99244690       2.51862431      -2.80031395
C        0.50032425       1.55875349      -2.60882568
H        2.32111549       0.21162462      -2.56489754
H        0.82534218      -0.49999070      -3.31217766
H        1.61410522       0.73641777      -4.19171906
C        1.40447617       0.44280148      -3.17495918
