40
Properties=species:S:1:pos:R:3 pbc="F F F"
H       -2.37892914      -2.40586090       3.46850204
H       -3.76834106      -1.64933205       2.71901703
H       -2.31991196      -2.16605759       1.67550659
C       -2.63460732      -1.72080040       2.63386154
H       -2.22546768       0.48287582       2.35869217
H       -1.94747162      -0.12884903       4.06690979
C       -1.84306145      -0.36994553       2.96928787
H       -0.02888298      -0.57013130       1.71117783
H        0.01367760      -1.14353180       3.47124481
C       -0.29708099      -0.31081963       2.79362679
H        0.10913849       1.74836731       2.57386398
H        0.14461708       1.33379745       4.19582748
C        0.42529297       0.92846107       3.18824387
H        2.36562729       1.22684097       3.87459183
H        2.25477219       0.04267693       2.64868546
C        1.94788933       1.04863548       2.92653847
H        3.38922119       2.43992233       2.13379669
H        2.23707581       1.84556198       0.94219398
H        1.84780502       3.16291428       2.12256432
C        2.39023972       2.19985580       1.97497368
H       -0.23626709       2.54037476      -1.01369667
H       -1.97920609       2.36532593      -1.17046738
H       -1.14899063       1.50628281       0.06453323
C       -1.06617737       1.86484909      -0.95853043
H       -1.72043800      -0.10567093      -1.85493851
H       -0.99690247       1.17004585      -2.85240936
C       -0.91129684       0.71035385      -1.92519379
H        0.58369637      -0.15867805      -0.65081596
H        1.26450920       0.74863815      -1.95139122
C        0.46554947       0.10093689      -1.73079491
H        1.76075172      -1.56204224      -2.29597092
H       -0.11528969      -1.95027351      -2.30202484
C        0.74062729      -1.22904205      -2.53648567
H       -0.60176086      -0.62830925      -4.25070763
H        1.07466698      -0.24643707      -4.48623657
C        0.42429924      -1.01124191      -4.04582787
H        0.92467308      -2.04203606      -5.95276833
H        1.46995544      -2.93984604      -4.59791183
H       -0.27364349      -2.86655426      -5.00313950
C        0.65973473      -2.26125526      -4.93434525
