40
Properties=species:S:1:pos:R:3 pbc="F F F"
H        2.89229012       3.59950638      -2.65864944
H        1.65184402       4.57139587      -1.81460190
H        2.76308918       3.48299980      -0.84286880
C        2.18806458       3.60518074      -1.80533409
H        0.58485603       2.55153275      -2.96528625
H        1.52440834       1.47842026      -1.97842026
C        1.12078857       2.49957848      -1.99731445
H        0.62558270       2.40295219       0.05949783
H       -0.47884464       3.51009369      -0.90842628
C        0.11431599       2.56200600      -0.86729431
H       -1.37547112       1.74108124      -2.14684677
H       -0.42465687       0.48282051      -1.14208603
C       -0.89544487       1.48135567      -1.15024757
H       -1.71250725       1.24620056       0.78689575
H       -2.60583305       2.34743309      -0.13845062
C       -2.12432098       1.36533928      -0.20024109
H       -3.84272099       0.09613800       0.29422760
H       -3.57408714       0.41439056      -1.39472008
H       -2.40748501      -0.68502235      -0.56120872
C       -3.08895397       0.21641350      -0.48445511
H        2.55155182      -1.05576706      -1.43686676
H        3.00329113      -2.70137405      -1.82122040
H        1.31203747      -2.07684135      -2.31431961
C        2.14318752      -2.11484718      -1.48559189
H        1.17709923      -3.81223679      -0.36630058
H        2.36302471      -2.84204674       0.58197403
C        1.57639027      -2.79343605      -0.20188141
H       -0.44218254      -1.93226814      -0.05503845
H        0.89546299      -0.88881111       0.58831406
C        0.47841167      -1.96932030       0.54631424
H       -0.22706509      -3.62669945       1.64291382
H        0.93049049      -2.55644608       2.60166168
C        0.08917236      -2.59160233       1.83990479
H       -1.89306355      -1.65994835       1.69968414
H       -1.52020550      -2.61877060       3.17314148
C       -1.11490154      -1.85305595       2.47641373
H       -1.50444984      -0.17644310       3.84416199
H       -0.00557899      -1.09887123       4.19223785
H       -0.11714458       0.14372063       2.98793793
C       -0.63047981      -0.74475670       3.42254639
