40
Properties=species:S:1:pos:R:3 pbc="F F F"
H       -0.64102221       4.10500431       1.20821381
H        0.04367304       5.27498341      -0.01648712
H       -1.42955136       4.33747578      -0.37358475
C       -0.41174316       4.31481075       0.07652664
H       -0.13026094       2.09273243      -0.06863785
H        0.66466427       3.07296276      -1.37630844
C        0.38888931       3.00420094      -0.27125931
H        1.62656641       2.99120617       1.64612961
H        2.22200251       3.87726498       0.17165375
C        1.68716526       2.94740200       0.52264404
H        3.70078993       1.94145489       0.67159653
H        2.23506403       0.90463924       0.87753677
C        2.69675064       1.79564381       0.27722549
H        1.76465607       0.83728123      -1.41895294
H        2.72591639       2.24984455      -1.85527802
C        2.69030523       1.35426235      -1.15783310
H        4.03730440      -0.13490009      -0.56433105
H        3.58849669      -0.22557545      -2.31140137
H        4.68216848       0.99923038      -1.66292572
C        3.78738070       0.39862156      -1.44853210
H       -4.07886696      -1.72578335      -1.19804001
H       -4.12928534      -3.48075581      -0.74698639
H       -5.57472134      -2.44411469      -0.29704666
C       -4.43643188      -2.47622299      -0.44337845
H       -4.09701538      -0.99832821       1.11451340
H       -4.40400648      -2.57677937       1.67488480
C       -3.81912160      -2.07218838       0.85982513
H       -2.04507661      -3.33312035       1.27296448
H       -2.05361223      -1.87129974       2.10242462
C       -2.27581215      -2.27728748       1.10432816
H       -1.54946470      -2.33595943      -0.93148804
H       -1.53853703      -0.65455437      -0.16979599
C       -1.28006935      -1.74571800       0.01895905
H        0.67208385      -1.28408527      -0.46557617
H        0.37957954      -1.18315697       1.29398727
C        0.19498968      -1.81015015       0.35400391
H        1.95350456      -3.08248901       0.55085373
H        0.51537132      -3.80289078       1.19256973
H        0.78331470      -3.77062225      -0.59413147
C        0.85398483      -3.21290874       0.38106537
