40
Properties=species:S:1:pos:R:3 pbc="F F F"
H        2.49396324       2.56237888       0.31205559
H        0.77742004       2.80544567       0.40314293
H        1.69557381       1.79699612       1.66164207
C        1.59045410       2.08710766       0.60347748
H        0.45981407       0.52286434      -0.04489326
H        1.53880882       1.31061649      -1.26714897
C        1.45829582       0.86079121      -0.27266312
H        2.27898216      -0.58421612       1.09578323
H        3.49277878       0.19634819      -0.04911613
C        2.48176765      -0.21753788       0.06805801
H        1.00957680      -1.53275967      -0.83241844
H        2.52877235      -1.34058857      -1.85892487
C        2.11999130      -1.40612984      -0.79857063
H        3.74011040      -2.57960606      -0.10523987
H        2.21442413      -2.86871243       0.80447769
C        2.65342903      -2.72016525      -0.17603111
H        3.18105507      -3.55772877      -1.95368576
H        3.07110786      -4.82013035      -0.72103119
H        1.48335648      -4.16262913      -1.31625366
C        2.57766533      -3.92914200      -1.10936737
H       -0.60989952       0.42398357       1.94648552
H       -2.34187698       0.25796318       2.79377556
H       -1.07979774      -1.10948086       2.84926224
C       -1.47993279      -0.22543335       2.23877525
H       -1.09943199      -1.22762203       0.30317307
H       -2.49642372      -1.89329815       1.30031013
C       -1.96907616      -0.94386005       0.95951653
H       -3.85406113       0.23591137       0.65315819
H       -3.36990738      -1.01181507      -0.58991623
C       -2.99198341      -0.20888615       0.08921432
H       -1.43464661       0.63617802      -1.07660484
H       -2.92883682       1.03805256      -1.84093094
C       -2.44172478       0.85485077      -0.81863594
H       -3.48976898       2.34000874       0.20626831
H       -1.90369225       2.09313107       0.92384720
C       -2.41948700       2.19530392      -0.08238220
H       -1.94134331       4.33386517      -0.43658066
H       -0.78011513       3.13121128      -1.16510963
H       -2.35794258       3.33257771      -1.83246803
C       -1.85734558       3.32407856      -0.86434174
