40
Properties=species:S:1:pos:R:3 pbc="F F F"
H        1.56636143      -1.83944702      -2.92550850
H        0.11299896      -1.32949829      -1.98949909
H        0.34522820      -0.55695343      -3.65653133
C        0.87502956      -0.94573975      -2.72107124
H        2.08416080      -0.33579254      -1.14786530
H        2.48736858       0.48455048      -2.70405102
C        1.67561054       0.18612671      -2.09592247
H       -0.03899860       0.83309937      -1.01926422
H        0.21174335       1.74455833      -2.60187149
C        0.73110294       1.37392235      -1.65098381
H        1.77639866       2.36467171       0.00795364
H        2.33211040       2.88026810      -1.64897728
C        1.44498348       2.56595230      -1.02505875
H        0.94435215       4.61579132      -0.37745857
H        0.26907158       4.13160896      -1.92748356
C        0.44864178       3.76681900      -0.88789558
H       -1.44533825       2.84066200      -1.04281235
H       -0.72666073       2.89327621       0.62723351
H       -1.49208355       4.36654663      -0.19492531
C       -0.93875980       3.41577148      -0.32943726
H       -2.19849491      -2.84100723      -0.50318813
H       -3.47702503      -3.27090263       0.75713921
H       -3.73643684      -1.92257500      -0.35948849
C       -2.96102142      -2.43098450       0.18420124
H       -1.92387295      -0.55740166       0.67181969
H       -3.17837238      -0.94303703       1.76526737
C       -2.40276432      -1.43951225       1.15621281
H       -1.01081657      -2.94753838       1.82840157
H       -1.86842442      -2.17731285       3.13005066
C       -1.34883404      -2.00027084       2.19180870
H       -0.59368420       0.07849884       2.66317940
H        0.32198238      -1.28625870       3.44777966
C       -0.18376923      -0.98933792       2.49600983
H        0.35185146      -1.40435982       0.46619320
H        1.26810360      -0.03595924       1.26431751
C        0.85939884      -1.02799034       1.38836288
H        2.72806263      -1.84197617       0.77810669
H        2.73812580      -1.61001778       2.53075790
H        1.86782360      -2.92552948       1.79097176
C        2.08481884      -1.88270378       1.66353607
