40
Properties=species:S:1:pos:R:3 pbc="F F F"
H        0.27412987       1.69527292      -1.78475571
H       -1.28755188       1.64431238      -0.69400692
H       -0.32391453       3.20575094      -0.96425056
C       -0.19212055       2.08022022      -0.81368065
H        0.87262154       0.85119104       0.42496490
H        1.52880764       2.51589060       0.37952995
C        0.57835293       1.87987471       0.46764374
H       -1.07439041       1.59099150       1.72816849
H       -0.46228313       3.35927391       1.68647575
C       -0.15733147       2.25071907       1.74144363
H        0.74138165       0.99488211       3.08034706
H        1.62933922       2.63447332       2.92841721
C        0.61667442       2.12569618       3.03307152
H       -0.36835670       3.76974630       4.01169586
H       -1.29251003       2.35502577       4.19445610
C       -0.25243187       2.71844482       4.19431877
H        0.34994793       1.52013731       5.90066719
H        1.26078987       3.09256887       5.73976898
H       -0.38230419       3.12141848       6.33571053
C        0.26535606       2.59833241       5.65459633
H        0.05695915      -1.99784851      -5.03743744
H       -1.59001541      -2.37450838      -4.39987469
H       -1.35129929      -0.95385325      -5.50829697
C       -0.86327648      -1.53914452      -4.65830994
H       -0.19035053       0.40500546      -3.99353600
H       -1.63359642      -0.20810795      -3.09566021
C       -0.64094639      -0.52340817      -3.53837872
H        0.12700462      -0.38119984      -1.51249313
H        1.23524189      -1.08062899      -2.63627529
C        0.17491436      -1.10717094      -2.30567551
H       -1.34619236      -2.61013865      -1.95514774
H        0.15904045      -3.25999784      -2.69704914
C       -0.26773167      -2.54707408      -1.99274254
H        1.32094097      -2.62892222      -0.50967789
H       -0.29927540      -2.72619128       0.17420006
C        0.30825901      -3.08833289      -0.66933155
H        1.26415730      -4.83707237       0.10023880
H       -0.44156647      -5.18929529      -0.70670509
H        1.11931896      -4.75925350      -1.59694481
C        0.53421402      -4.59709501      -0.70541763
