40
Properties=species:S:1:pos:R:3 pbc="F F F"
H        5.30918312      -2.96929359      -1.19273949
H        4.43140030      -3.94039917       0.08504486
H        4.01083946      -3.81626320      -1.67769814
C        4.36593056      -3.28190422      -0.84619141
H        2.77554321      -2.33760834       0.13556671
H        4.17782784      -1.22951317       0.02503967
C        3.55880547      -1.99064255      -0.54929733
H        2.39189148      -1.78401947      -2.44579697
H        3.91975975      -0.82325935      -2.34963989
C        3.04811668      -1.15062523      -1.75188446
H        1.49028015      -0.20591164      -0.62229156
H        3.02647400       0.63676262      -0.65115356
C        2.34054756       0.07114983      -1.29035759
H        2.23436546       1.17009544      -3.29881287
H        0.74831200       0.46143150      -2.63788605
C        1.67949867       0.99839211      -2.33551407
H        0.55412579       2.77547646      -2.55114746
H        0.41362667       2.13454247      -0.85884857
H        1.89888191       3.07765007      -1.36427307
C        1.10519791       2.28588295      -1.70669365
H       -6.35799599       0.73804665      -0.02549362
H       -5.72211170       1.57714653       1.32438660
H       -5.06490707       2.00253487      -0.28372192
C       -5.40493488       1.20392418       0.35635376
H       -4.74449825      -0.78227997       1.02293777
H       -3.92850685      -0.02816582      -0.43138885
C       -4.29253674       0.10622978       0.58782196
H       -2.82121277       1.59657860       1.35001755
H       -3.34406567       0.41879463       2.48476791
C       -3.06836224       0.53903389       1.41400528
H       -1.94921303      -1.29502106       1.47299957
H       -1.74718475      -0.22495270      -0.10248947
C       -1.82335281      -0.28126526       1.00307465
H        0.29207134      -0.17538261       1.38931274
H       -0.53898621       1.34462929       1.14051819
C       -0.57744408       0.37450218       1.64042664
H       -1.42040253       1.35904884       3.34902954
H       -0.73750210      -0.29390526       3.63724136
H        0.37021542       1.07288170       3.44081116
C       -0.59970284       0.66589546       3.11398315
