40
Properties=species:S:1:pos:R:3 pbc="F F F"
H       -0.13314199      -2.24515915       2.24393845
H        0.21467066      -0.70671272       3.17707634
H       -0.28223944      -2.18225193       4.15428400
C       -0.42350054      -1.60873318       3.20990896
H       -2.46795249      -2.31202507       3.24332237
H       -2.10631037      -0.96383858       4.27795744
C       -1.91711473      -1.34197617       3.26567745
H       -3.58351278      -0.53710175       2.22848988
H       -2.23732948      -0.96428680       1.17945933
C       -2.46144366      -0.51401329       2.17941999
H       -2.42534471       1.62367535       2.84029818
H       -0.90640712       1.09811878       2.09224319
C       -2.00359893       0.96618271       2.03511429
H       -1.58319044       1.31251335      -0.07762337
H       -3.28502393       1.30679703       0.44502211
C       -2.29710388       1.65161419       0.69457793
H       -2.81192374       3.49978828       1.59396267
H       -1.22167277       3.54136658       0.91695333
H       -2.67293406       3.68108368      -0.11525464
C       -2.23091269       3.16254807       0.73870492
H        2.59522343       2.52818108      -0.15373898
H        2.15766811       1.50455189       1.25319791
H        3.29278517       0.80981445       0.02351522
C        2.38629389       1.47974014       0.19923878
H        0.57272625       0.17131042       0.01772428
H        0.64945364       1.74724388      -0.70675826
C        1.21678209       0.84158039      -0.53150940
H        2.01920080       1.10830879      -2.57844186
H        0.31034613       0.69318581      -2.51484799
C        1.29873276       0.42903328      -2.05758214
H        2.78402042      -1.15785599      -1.82313442
H        1.15882730      -1.69319534      -1.64066160
C        1.77271223      -1.01339054      -2.22675037
H        0.67452431      -1.51452446      -4.11049080
H        2.36981297      -0.76677704      -4.19444275
C        1.70540190      -1.42387390      -3.71987367
H        2.10674715      -3.28414822      -4.79717636
H        3.48864794      -2.65680981      -3.70809245
H        1.94324684      -3.49069881      -3.15669608
C        2.33283758      -2.77918720      -3.89700317
