40
Properties=species:S:1:pos:R:3 pbc="F F F"
H       -2.88259506       2.07954216       1.32515144
H       -1.05602074       2.07819748       1.32095146
H       -1.99972916       3.64675522       0.91528893
C       -1.91939354       2.50266457       0.80863380
H       -2.12086105       0.79526138      -0.44682503
H       -3.02510071       2.17054558      -0.98627090
C       -2.02205467       1.88876724      -0.57745361
H       -0.90839386       3.56235313      -1.46852875
H       -1.19873047       2.02753830      -2.53501701
C       -0.93104553       2.41337013      -1.49800587
H        0.74574280       2.24683571       0.01140213
H        0.27022171       0.84162331      -0.84738922
C        0.47691536       1.89313698      -1.02005386
H        1.28934479       1.56946373      -2.95691490
H        1.63959694       3.24083900      -2.20107841
C        1.57085609       2.11456871      -2.03591251
H        2.81165314       0.35058022      -1.52960491
H        3.67182159       1.49165154      -2.44782639
H        3.31463623       1.87818146      -0.74515343
C        2.95636559       1.47282982      -1.68044949
H       -0.38829422       0.18961525       3.73378754
H       -1.73436928      -0.99830818       3.70800018
H       -0.02556419      -1.53706741       3.85151100
C       -0.66793442      -0.82133293       3.38935280
H       -1.13576698      -0.08061409       1.45502472
H        0.60511017      -0.59058952       1.58865547
C       -0.44935608      -0.91126442       1.86826134
H       -1.81395912      -2.56156158       1.73817825
H       -0.19356918      -3.07676697       1.77866745
C       -0.87776566      -2.26283455       1.36117744
H       -1.20713615      -3.26782417      -0.44938087
H       -1.46053123      -1.55132103      -0.63430977
C       -0.76842499      -2.33889389      -0.16971779
H        0.60750961      -2.08837318      -1.88561726
H        1.28375435      -1.34373474      -0.30235100
C        0.66144562      -2.21771240      -0.74122047
H        1.70381737      -3.76968670       0.61245155
H        1.13333130      -4.40485764      -0.95641708
H        2.53080368      -3.18273354      -0.90387344
C        1.51360703      -3.44898033      -0.44707489
