40
Properties=species:S:1:pos:R:3 pbc="F F F"
H        2.65413094       2.30460930       5.05829000
H        1.03569221       1.35434914       5.10427713
H        2.48114395       0.60124207       4.46003485
C        1.97771072       1.57195854       4.56039572
H        1.06249046       3.18596649       3.34913969
H        2.43190765       2.37927055       2.67739534
C        1.51130867       2.18761253       3.22513533
H        0.11524200       2.04220200       1.54876661
H       -0.24830437       0.95689774       2.95584440
C        0.56172180       1.38804245       2.35992193
H        1.74067307      -0.43614578       2.47027540
H        0.24596024      -0.47931099       1.31458139
C        1.17670631       0.11417770       1.70225859
H        1.90536308       1.12261963      -0.12420845
H        3.16251755       0.83667374       1.04107618
C        2.25778580       0.28683853       0.61206293
H        1.86759377      -1.44285965      -0.84004021
H        3.52238655      -0.80846405      -0.84909105
H        3.12191200      -1.72022629       0.43553305
C        2.62835503      -0.96175385      -0.17639685
H       -2.28418541       2.33658600      -3.23868513
H       -3.23035049       0.94491005      -3.53563166
H       -3.90576172       2.33183861      -2.56333685
C       -2.98587990       1.68542862      -2.76166201
H       -1.98981094       2.09650612      -1.00189734
H       -3.18424797       0.77871323      -0.75227594
C       -2.44432068       1.18845749      -1.45631504
H       -0.58340073       0.24549484      -0.80287027
H       -0.80632591       0.40766716      -2.58372927
C       -1.35494995       0.21302795      -1.66456175
H       -2.46041107      -1.62271309      -0.93387318
H       -2.52404404      -1.41412926      -2.78874922
C       -1.89031792      -1.26821899      -1.83368254
H        0.00688744      -1.79413986      -2.59347582
H       -0.23813248      -2.38714600      -0.93871927
C       -0.74909210      -2.25488091      -1.96215248
H       -0.24002075      -4.22161102      -1.99069881
H       -2.03665352      -4.18988037      -1.77696848
H       -1.19081306      -3.83691597      -3.39299774
C       -1.12050629      -3.72268295      -2.31301641
