40
Properties=species:S:1:pos:R:3 pbc="F F F"
H        1.07981110       0.27809715      -3.08565331
H        0.74633789      -0.07873154      -1.28593922
H        0.11943436      -1.16883278      -2.49618816
C        0.30476761      -0.08158302      -2.28583431
H       -0.63555908       1.82439041      -2.19139194
H       -1.56197929       0.73464394      -3.13750362
C       -0.94525528       0.77319336      -2.24431229
H       -1.09750748       0.96113396      -0.11430931
H       -1.95274353      -0.45867729      -0.75066471
C       -1.71986389       0.58352089      -0.94520664
H       -2.88756561       2.35816574      -1.23747635
H       -3.78516769       0.94430542      -1.69293594
C       -3.03726578       1.32188416      -0.94236088
H       -3.78149033       0.34863091       0.71814823
H       -3.21143150       2.12201309       1.16987896
C       -3.71219254       1.44155693       0.39242554
H       -5.59779358       2.19878387       1.26502705
H       -5.13130951       2.98103523      -0.24442577
H       -5.79495811       1.25684547      -0.34317112
C       -5.17121506       2.00382233       0.26511288
H        3.96697617      -0.32000732      -2.03133202
H        3.41156006       0.67401123      -0.58253002
H        5.09465027       0.02339172      -0.78374767
C        4.00790787      -0.19269753      -0.92005444
H        2.71001053      -2.01678753      -0.74315166
H        4.38669968      -2.24868870      -0.67743206
C        3.59308624      -1.55236340      -0.32696342
H        4.60253525      -1.09504890       1.46854877
H        3.60167694      -2.60737991       1.44869041
C        3.58340454      -1.52607632       1.15537453
H        2.56573105      -0.61612129       2.85069561
H        2.12844086       0.22665405       1.26820374
C        2.38927078      -0.77304840       1.74051571
H        0.74341202      -1.62075138       0.66721344
H        1.16147614      -2.57658577       2.09027767
C        1.00733948      -1.48325920       1.73070240
H       -0.37506104       0.23026085       2.05619335
H       -1.01549911      -1.43085289       2.65845680
H        0.31553078      -0.66397762       3.57313824
C       -0.10601044      -0.77482605       2.54396343
