40
Properties=species:S:1:pos:R:3 pbc="F F F"
H        1.32521534       0.86493874      -3.18394089
H        2.78590012       1.52024460      -2.25557089
H        1.52253437       0.48906517      -1.41647530
C        1.69186020       1.27302170      -2.19788790
H        1.29624844       3.35070419      -2.54231739
H       -0.09048080       2.48239517      -1.98335886
C        0.99539089       2.61032104      -1.78239441
H        1.17457390       4.32582474      -0.39633656
H        2.41683197       2.98312378      -0.16312122
C        1.32579422       3.21016312      -0.42145729
H       -0.60492134       2.51303864       0.63598537
H        0.78037167       1.37643051       0.61699677
C        0.52708817       2.49427414       0.71930981
H        1.95512390       2.94406891       2.42532635
H        0.52515221       3.90487671       2.42642593
C        0.82865524       2.89280701       2.19414139
H        0.51183128       0.86450195       2.85121536
H        0.38514137       2.03985977       4.19489288
H       -0.89814377       1.92760849       2.96962357
C        0.18570900       1.91381454       3.08335495
H        1.35154629      -4.23604774      -2.74480104
H        0.69946289      -4.95557213      -1.33615303
H       -0.40282059      -4.37335396      -2.61823559
C        0.53273487      -4.17617607      -2.05428076
H        1.27920151      -2.53568077      -0.77144814
H        0.52092075      -1.90140915      -2.27927494
C        0.47410393      -2.74459839      -1.46963024
H       -0.98287201      -3.46644974      -0.18977165
H       -1.68600464      -2.60092545      -1.45259285
C       -0.81948090      -2.51657104      -0.71667957
H       -0.03990173      -1.17098618       0.75843716
H       -0.62320805      -0.42280197      -0.77067089
C       -0.87881184      -1.16506958       0.02160931
H       -2.37071133       0.09015656       0.77701759
H       -3.06879425      -1.18545914      -0.15052891
C       -2.23768711      -0.98100090       0.63314915
H       -1.62069702      -1.77870178       2.56595802
H       -3.42806149      -1.36569405       2.41342449
H       -2.85478973      -2.75125885       1.66226006
C       -2.48406029      -1.74353409       1.94784546
