40
Properties=species:S:1:pos:R:3 pbc="F F F"
H       -1.39117527       6.29854202       1.08368492
H       -2.41649914       5.10419846       2.16689873
H       -0.60439968       5.21308899       2.16526413
C       -1.51820755       5.26259995       1.54479599
H       -1.64777946       3.19943237       1.23934937
H       -2.23009968       4.16470718      -0.19426918
C       -1.38167286       4.06358337       0.59862709
H        0.77715969       3.88309479       0.71696091
H        0.26543903       4.67436600      -0.63248444
C       -0.02248192       3.81735992       0.00033569
H       -0.51757145       2.65149307      -1.82982254
H        1.03101158       2.37315369      -1.24143028
C        0.02205086       2.56530762      -0.83902931
H       -1.73344421       1.40181351      -0.18527985
H       -0.46811008       0.53349304      -1.04317093
C       -0.60167599       1.32608414      -0.22227097
H       -0.31493759      -0.23822021       1.30150604
H        1.08402824       0.86964417       0.95536613
H       -0.29493999       1.52169418       1.96092224
C       -0.02441978       0.89564133       1.09129715
H        3.59490013      -3.22585297       1.67057610
H        3.12469292      -4.78081322       0.72785759
H        4.54815292      -3.60561752       0.19475555
C        3.51905632      -3.73456955       0.67984390
H        2.92393112      -2.08425331      -0.50848007
H        2.51772118      -3.56382942      -1.31826973
C        2.59010696      -3.07418823      -0.31622314
H        0.86198425      -2.53136063       1.03609085
H        0.74619484      -4.17933846       0.20037842
C        1.12002087      -3.10313416       0.15527153
H        0.20867443      -3.17252731      -1.89423752
H        0.15305614      -1.58190155      -1.07488823
C        0.09500217      -2.62603760      -0.94414902
H       -1.43054199      -4.13504791      -0.50098991
H       -1.46252823      -2.60889816       0.53652954
C       -1.32290077      -2.99435234      -0.51308441
H       -1.84227753      -2.27142334      -2.50738907
H       -3.21024513      -2.82401466      -1.55604553
H       -2.46398163      -1.22882652      -1.25851822
C       -2.28324127      -2.25505447      -1.44596481
