6
Properties=species:S:1:pos:R:3 pbc="F F F"
O        1.21379852       0.24744987       0.99554062
H        0.44268036       0.65814400       0.60446548
H        0.85996437      -0.34231377       1.66128159
O       -0.95021629       0.16180992      -0.95311928
H       -0.17699814      -0.04524612      -1.47799301
H       -1.38922691      -0.67984486      -0.83016777
