6
Properties=species:S:1:pos:R:3 pbc="F F F"
O       -0.47047615      -1.30243373      -0.89168167
H       -0.00823784      -0.68108463      -0.32910538
H       -1.36029434      -0.95496249      -0.95267105
O        0.32965469       0.79018736       0.53359604
H        1.13756752       0.42549372       0.89485931
H        0.37178230       1.72280169       0.74499130
