6
Properties=species:S:1:pos:R:3 pbc="F F F"
O       -0.86084080       0.01271343       1.01111698
H       -0.26805401      -0.18485212       1.73624039
H       -0.62892246       0.90314198       0.74733353
O        0.55292797      -0.58095288      -1.35908031
H        0.30087852      -0.39903378      -0.45375824
H        0.90401077       0.24898386      -1.68184566
