6
Properties=species:S:1:pos:R:3 pbc="F F F"
O        0.50730324       0.49654675      -1.42784691
H        0.09876633       0.29693031      -0.58553696
H        1.44526100       0.52467918      -1.23897362
O       -0.59332657      -0.71150017       0.81892014
H       -1.45320320      -0.33111286       0.99823570
H       -0.00480080      -0.27554083       1.43520546
