6
Properties=species:S:1:pos:R:3 pbc="F F F"
O       -0.58877373       0.05862427       1.43791199
H       -0.74559593       1.00207901       1.47696352
H       -0.46987152      -0.12653732       0.50634861
O        0.31091690      -0.45991516      -0.92566967
H        0.27114105       0.27665329      -1.53568435
H        1.22217178      -0.75090027      -0.95987010
