6
Properties=species:S:1:pos:R:3 pbc="F F F"
O       -1.08027077       1.17649341      -0.46459007
H       -0.40216446       0.53981876      -0.23864746
H       -1.38593102       1.51096964       0.37857628
O        0.77716064      -0.76694256      -0.05040550
H        0.37313652      -1.54972398       0.32409477
H        1.71806908      -0.91061562       0.05097961
