6
Properties=species:S:1:pos:R:3 pbc="F F F"
O       -0.69656754       0.76773763       1.17375660
H       -1.45032310       0.20320821       1.34519482
H       -0.15831184       0.26926088       0.55891037
O        0.98365784      -0.17084551      -0.80826092
H        0.89907265      -0.18358302      -1.76163197
H        0.42247581      -0.88578010      -0.50796986
