6
Properties=species:S:1:pos:R:3 pbc="F F F"
O        0.77127075       0.75878716       0.13438988
H        1.33150482       1.50131321       0.36027336
H       -0.06376266       1.15511703      -0.11435127
O       -0.86065102      -1.37100315      -0.38310051
H       -0.02185822      -0.92233849      -0.48969269
H       -1.15650749      -1.12187386       0.49247742
