6
Properties=species:S:1:pos:R:3 pbc="F F F"
O        0.33569717      -0.18128777       1.47912788
H        1.09300995      -0.48043633       0.97591209
H       -0.34468079      -0.82947636       1.29701424
O       -0.55118561       0.15682125      -1.27808571
H        0.00130463       0.57433033      -1.93889999
H       -0.53412628       0.76004219      -0.53507614
