6
Properties=species:S:1:pos:R:3 pbc="F F F"
O       -0.61082268      -0.14785194      -0.83339691
H       -1.37563896       0.42752838      -0.81838608
H       -0.78321457      -0.75752068      -1.55090332
O        0.73009491       0.19823837       1.40481949
H        0.37038994      -0.02340889       0.54591560
H        1.66917992       0.30302429       1.25194550
