6
Properties=species:S:1:pos:R:3 pbc="F F F"
O       -0.19933128       1.18290710       0.10095406
H       -0.10920143       2.03664017       0.52433014
H       -0.88511086       0.73888302       0.59973335
O        0.76985931      -1.43825674      -0.41733932
H        0.42697525      -0.56957150      -0.62721634
H       -0.00319862      -1.95060492      -0.18045807
