6
Properties=species:S:1:pos:R:3 pbc="F F F"
O       -0.59210014      -0.93201256      -0.48844147
H       -0.40125275      -1.82890129      -0.21384430
H       -1.39854622      -0.70564842      -0.02515411
O        0.60425377       1.48571205       0.16331482
H        1.52349663       1.28730392      -0.01517105
H        0.26414871       0.69354820       0.57929420
