6
Properties=species:S:1:pos:R:3 pbc="F F F"
O        1.39465904      -0.74540520      -0.54482460
H        0.47413826      -0.50991249      -0.42898750
H        1.87697029      -0.07049179      -0.06722355
O       -0.91576958       0.46519089       0.14391232
H       -1.67025185       1.05272293       0.10154057
H       -1.15975189      -0.19210434       0.79557705
