6
Properties=species:S:1:pos:R:3 pbc="F F F"
O        0.33814716       0.94309998       0.37560463
H        0.75331450       0.38574791       1.03380394
H        0.50067377       1.83590508       0.68009758
O       -0.86655331      -1.11528206      -0.88657188
H       -0.54153585      -0.29397583      -0.51771545
H       -0.18404818      -1.75549507      -0.68521881
