6
Properties=species:S:1:pos:R:3 pbc="F F F"
O       -0.86796379      -0.29457265      -1.34615326
H        0.01505470      -0.59265643      -1.12785625
H       -1.02893448       0.43628132      -0.74935150
O        0.42609596      -0.08540225       1.31219196
H        0.58397102       0.85319877       1.41385555
H        0.87178230      -0.31684852       0.49731159
