6
Properties=species:S:1:pos:R:3 pbc="F F F"
O        0.20151329       1.79676056       0.39323932
H        0.65707970       1.90838623      -0.44116461
H       -0.22113419       0.94077682       0.32327747
O       -0.49340820      -1.30666351       0.03103179
H       -0.41775894      -1.73065948      -0.82379991
H        0.27371979      -1.60861969       0.51741594
