6
Properties=species:S:1:pos:R:3 pbc="F F F"
O        0.00149345       0.13001633       1.29294395
H       -0.74873734      -0.41774368       1.06198692
H        0.74386406      -0.47402954       1.30869389
O       -0.12700081       0.10110092      -1.55704784
H       -0.64666939       0.49775696      -0.85787392
H        0.77706528       0.16289902      -1.24870396
