40
Properties=species:S:1:pos:R:3 pbc="F F F"
H       -1.17761993       0.86209869       2.25826502
H        0.49715900       1.04311752       2.97669363
H       -0.66689396       2.36631393       2.80766821
C       -0.27622795       1.48733711       2.27533197
H        0.35253906       1.01479530       0.32772350
H        1.20395088       2.47357178       0.88998508
C        0.21341133       1.89430428       0.95448971
H       -1.19383621       3.63743401       0.90057898
H       -1.83387804       2.13519669       0.31521559
C       -0.93931198       2.68127632       0.29592371
H        0.06777573       3.94472885      -1.03402662
H       -1.66982985       3.62019920      -1.48181200
C       -0.67469025       3.15529823      -1.15495539
H        0.88848782       1.83889198      -1.85788727
H       -0.13890266       2.55751419      -3.10807872
C       -0.16639423       2.13302803      -2.12771654
H       -1.67828465       0.82745171      -3.04137206
H       -0.43989849      -0.04773140      -2.15910530
H       -1.68878889       0.89067078      -1.32123256
C       -0.99243450       0.90216637      -2.17401814
H       -2.50381660      -2.72262955      -0.32754111
H       -3.12994003      -2.81131935       1.37189627
H       -2.62613487      -1.24114609       0.74664259
C       -2.36841869      -2.37484360       0.68974924
H       -0.82744884      -3.77943802       1.43548679
H       -0.89295101      -2.20075417       2.26570082
C       -0.99008274      -2.71945000       1.24398422
H       -0.24556065      -1.18579292      -0.01753664
H       -0.14836025      -2.80476189      -0.63695979
C        0.09027290      -2.20092583       0.26334333
H        1.67428398      -3.52655220       0.89507580
H        1.74268246      -1.82146835       1.58707476
C        1.52250004      -2.42792511       0.66765213
H        2.68105888      -2.60820770      -1.15483212
H        3.69392204      -2.12619591       0.18613243
C        2.69166374      -1.92842674      -0.29928493
H        2.77101898       0.23683739       0.00826359
H        3.15542030      -0.35960579      -1.67479849
H        1.45571041      -0.33907127      -1.02609420
C        2.56781673      -0.47599602      -0.76562405
