40
Properties=species:S:1:pos:R:3 pbc="F F F"
H        1.66072464       2.76976967       0.00477600
H        3.34505081       3.45430374       0.02324677
H        2.35620499       3.37917900      -1.51377106
C        2.60869408       2.83291435      -0.57162476
H        3.34604645       1.07899475       0.31598663
H        4.04489708       1.52927399      -1.39934158
C        3.12268066       1.44121742      -0.76456070
H        1.75186157       0.98771477      -2.36580658
H        1.21250153       0.34132576      -0.92103195
C        2.15929413       0.51811790      -1.46120071
H        3.77179337      -0.79576302      -1.05595970
H        2.90925980      -1.08318138      -2.65652466
C        2.79147720      -0.84936142      -1.59054184
H        2.10692596      -1.53660202       0.20585632
H        2.90943527      -2.88286209      -0.80750275
C        2.11558533      -2.00712204      -0.75837326
H        0.23136139      -1.93909645      -2.00774384
H        0.96492767      -3.49645615      -1.78659439
H        0.02066994      -2.78872681      -0.45277023
C        0.74465942      -2.59033203      -1.27877617
H       -2.19139862       2.69054031       2.77072906
H       -0.34548378       2.79554176       2.55011368
H       -1.48899460       3.29834747       1.17105293
C       -1.31378746       2.60814857       2.03287888
H       -1.12123871       0.37062263       2.28770065
H       -0.61567879       1.03807068       0.66709900
C       -1.33586884       1.14739799       1.44073868
H       -2.96965408       1.73655128       0.06232834
H       -3.53040886       0.82174110       1.38842964
C       -2.70508957       0.84218788       0.70046616
H       -2.03794479      -0.20348740      -1.17319679
H       -3.77993965      -0.66704178      -0.54180336
C       -2.72188187      -0.36715698      -0.28813744
H       -1.12416077      -1.37044334       0.67679214
H       -2.20770264      -2.47762489      -0.38061905
C       -2.16666603      -1.65612411       0.42043304
H       -4.00897408      -2.13287354       1.23439598
H       -2.60164070      -3.24573708       1.80535126
H       -2.92210388      -1.44986343       2.41860580
C       -2.98557091      -2.14217949       1.59878349
