40
Properties=species:S:1:pos:R:3 pbc="F F F"
H       -4.00562668       0.36632156      -0.29287052
H       -2.53340149       0.15436745      -1.21078730
H       -3.23213100      -1.31198788      -0.42044687
C       -3.02251291      -0.19362354      -0.30636501
H       -1.27097034      -0.71930695       0.88288546
H       -2.75733280      -0.39717865       1.80696535
C       -2.12983990      -0.03053093       0.90704823
H       -2.57762575       2.01917934       1.24837399
H       -1.05334568       1.81253529       0.52081776
C       -1.69473648       1.38856888       1.26028109
H       -1.56411457       1.02246380       3.41443634
H       -0.99500179       2.66008472       2.83540964
C       -0.98200035       1.55311871       2.65325117
H        0.33162308      -0.06780052       2.21126938
H        0.64262199       0.82091713       3.80589771
C        0.44516087       0.99141788       2.66612816
H        1.25398827       2.05506134       0.97178888
H        1.68002701       2.74971294       2.59790134
H        2.59996510       1.30217361       2.08079386
C        1.55579185       1.82288551       2.03147507
H        1.33655262       2.57505703      -3.39708900
H        0.38897610       1.13294601      -3.93017888
H       -0.11245632       1.89605999      -2.49113774
C        0.77549458       1.63480473      -2.98848152
H        1.86115646       1.29477501      -1.16456604
H        2.52472019       0.45101929      -2.68741107
C        1.60530472       0.77910614      -2.13641214
H        0.46937370      -0.91255379      -2.52952528
H       -0.13601875      -0.14953899      -1.16908169
C        0.82922745      -0.44279957      -1.66780996
H        2.12360477      -0.65296936      -0.02388287
H        2.50292778      -1.81606197      -1.37997770
C        1.66966438      -1.35263729      -0.74122572
H        0.05870628      -2.03495979       0.52387333
H        1.56255436      -2.82840729       0.80015421
C        0.88763905      -2.45965576      -0.00776100
H        1.26901817      -3.96600437      -1.52903318
H       -0.21408081      -4.37797260      -0.43124199
H       -0.41472340      -3.20382404      -1.75233817
C        0.32182121      -3.56473446      -0.96109438
