40
Properties=species:S:1:pos:R:3 pbc="F F F"
H        3.37450790       4.07435036       1.41952705
H        2.13706207       4.83468246       0.46724701
H        1.65824699       3.75234413       1.79751396
C        2.38420296       3.89569855       0.96825123
H        2.93542671       2.82799911      -0.96411562
H        1.20613098       2.56568336      -0.34316921
C        2.28602028       2.66655731      -0.02350426
H        2.54322815       1.29950142       1.66544151
H        3.87853241       1.26257706       0.37330246
C        2.76437759       1.33748627       0.57407093
H        2.26565552       0.40236092      -1.24854660
H        0.97980309       0.30925751       0.09935951
C        2.11967278       0.23204613      -0.18168831
H        3.53611946      -1.46424675      -0.17426777
H        1.76278687      -1.80348015      -0.53382778
C        2.49540329      -1.25602722       0.09445572
H        2.94435120      -1.27116013       2.21285915
H        1.26832581      -1.43513870       1.70546532
H        2.27804947      -2.88654900       1.54079151
C        2.27240372      -1.73940086       1.47312164
H       -2.38444328      -4.25239563       1.32105637
H       -2.90290451      -2.68553162       2.26002312
H       -3.91451073      -3.32885170       1.03959656
C       -2.89981079      -3.24173355       1.30248737
H       -2.49806786      -2.56490898      -0.62343502
H       -1.09447098      -2.44962120       0.46965790
C       -2.22366333      -2.21777344       0.35966301
H       -2.12335968      -0.50767899       1.53687763
H       -3.66954041      -0.54559135       0.83760071
C       -2.57516479      -0.75033188       0.57140160
H       -0.93819046      -0.08819008      -0.60447979
H       -2.01561356       1.25704193      -0.20118237
C       -1.95475578       0.17532158      -0.50438213
H       -3.63413429      -0.14649963      -2.06235981
H       -2.23268890      -1.04456139      -2.33321381
C       -2.51753998      -0.01979065      -1.97688103
H       -0.89812279       0.99727058      -2.82583904
H       -2.27622604       0.83033180      -3.96308899
H       -2.36233139       1.99248695      -2.58964443
C       -1.97473526       0.98629379      -2.93612957
