40
Properties=species:S:1:pos:R:3 pbc="F F F"
H        3.82384968      -2.25045395       1.22944450
H        4.13838673      -3.50574303       0.00515556
H        3.59020901      -1.77569008      -0.38890648
C        3.53514004      -2.60685539       0.31798458
H        1.86172199      -3.65485573       1.31315517
H        1.60951519      -3.40664482      -0.48570442
C        2.01374340      -2.96799850       0.41533184
H        1.25358677      -0.97953033       0.02408504
H        1.55022144      -1.38847733       1.78511620
C        1.17466640      -1.75215149       0.76552963
H       -0.67817974      -2.40233231      -0.03125858
H       -0.79510307      -1.02815437       0.97812653
C       -0.32592583      -2.00172424       0.93163490
H       -0.32819653      -3.92323875       1.95169640
H       -1.88309574      -3.08366394       1.92913151
C       -0.76669502      -2.93293381       2.02946854
H       -1.03412819      -1.41559219       3.55502796
H       -0.67997169      -3.00289917       4.23637104
H        0.57057190      -2.06660652       3.54437923
C       -0.49283218      -2.35199356       3.37807560
H        1.53105545       3.55052948       0.11293888
H        0.33962345       4.88505554       0.58735561
H        0.54410362       3.51782608       1.61870575
C        0.53311634       3.79058456       0.54478550
H       -0.55272579       3.79959869      -1.26738644
H       -1.57751369       3.45436859       0.11447144
C       -0.55705261       3.24162292      -0.34067535
H       -0.48301411       1.17912674       0.36545658
H        0.28287601       1.46773911      -1.16350174
C       -0.61756039       1.73749161      -0.61007500
H       -2.78946018       1.31420898      -0.74324512
H       -1.65093136       0.24423599      -1.77882576
C       -1.84344959       1.23923683      -1.34857655
H       -2.49444485       3.07442856      -2.35494900
H       -3.16274166       1.72951508      -3.12321663
C       -2.18604851       2.02292252      -2.62973690
H       -0.90929890       0.98277283      -3.99911213
H       -1.37772751       2.73246765      -4.52965736
H       -0.09442234       2.44795990      -3.25739574
C       -1.07184219       2.08587265      -3.68120956
