40
Properties=species:S:1:pos:R:3 pbc="F F F"
H       -2.02059555      -1.74601936      -3.96776962
H       -0.39709854      -1.26625824      -4.31968307
H       -0.68906784      -2.95915031      -3.90908909
C       -0.98340797      -1.91276741      -3.67913246
H       -0.67795563      -0.36586952      -2.05707550
H        0.26735115      -1.86251450      -1.87028313
C       -0.69605827      -1.53349495      -2.18088436
H       -2.00064659      -3.00242805      -1.11086082
H       -2.75076866      -1.48193932      -1.49249458
C       -1.75277710      -1.91262436      -1.20676613
H       -1.52124405      -0.19768906       0.32915115
H       -0.57040405      -1.86701584       0.59114075
C       -1.48976707      -1.32320404       0.19970894
H       -2.50336838      -2.71174812       1.54915237
H       -3.56742287      -1.41821480       1.03196907
C       -2.52423477      -1.67219543       1.31111336
H       -3.11489105      -1.17614365       3.34091949
H       -1.30316734      -1.24784088       3.09114647
H       -2.19331932       0.17787170       2.45904922
C       -2.24125099      -0.92734528       2.64513969
H        2.45419121      -1.75470352      -0.02126884
H        3.62420845      -0.63916397       0.80103111
H        2.53284645      -1.56827545       1.75200272
C        2.63952065      -1.06850815       0.81299400
H        2.09317589       0.84292603       1.86923599
H        0.66000748      -0.04235077       1.12552834
C        1.75155067       0.18615150       0.95496178
H        1.92684746       0.31299591      -1.13482189
H        2.87271690       1.58348846      -0.29063225
C        1.83841896       1.03888130      -0.30665970
H       -0.11096191       1.44629669      -0.59932899
H        0.87964821       2.49460030      -1.54141331
C        0.73032570       2.09607506      -0.59039879
H        0.01475716       2.67500496       1.36458397
H       -0.09695816       4.02425575       0.13835526
C        0.53170395       3.17745972       0.52061653
H        2.56473732       4.12553215       0.15870476
H        1.50696754       4.66299438       1.58543587
H        2.45857811       3.05220795       1.66061020
C        1.85785103       3.76071739       0.98603821
