40
Properties=species:S:1:pos:R:3 pbc="F F F"
H       -0.47053719       2.47199440      -4.33339787
H        1.23723412       1.82256889      -4.44379520
H       -0.17957306       0.81377792      -3.88311005
C        0.28262329       1.81707001      -3.87306404
H        0.78429222       3.28437424      -2.41274929
H        1.32829475       1.59516335      -1.98542786
C        0.49083328       2.20219421      -2.42909622
H       -1.35229492       1.20876503      -1.57087612
H       -1.53849602       2.99110413      -1.93996620
C       -0.80182457       2.20439911      -1.50693703
H        0.01778984       3.41946983       0.15124226
H        0.25992393       1.66917992       0.27995586
C       -0.48058319       2.44166946       0.01082325
H       -2.25890732       1.23792076       0.68252087
H       -2.43028831       2.99987221       0.38276768
C       -1.73617172       2.29267120       0.77056026
H       -2.25883865       2.54648972       2.89470768
H       -0.77769852       1.59606552       2.71984196
H       -0.67057610       3.30539894       2.37740421
C       -1.38744164       2.42788696       2.24575901
H        3.45500374      -1.17318916       1.57711506
H        3.99759102      -1.29425430      -0.22478962
H        3.01144218       0.12731552       0.55972958
C        3.18568993      -1.00782013       0.51908398
H        1.86589622      -2.69165993       0.09914303
H        1.57465553      -1.27709007      -0.90531158
C        1.81884956      -1.59608841       0.11639690
H        0.49669838      -0.18314362       1.20089436
H        0.73844528      -1.77360153       2.04127216
C        0.61342049      -1.28297806       1.05160999
H       -0.59097099      -1.48571396      -0.69390392
H       -1.50031471      -1.29895020       0.79416752
C       -0.61798286      -1.87707138       0.37005711
H       -0.00736046      -4.00116348      -0.08513260
H       -1.70284462      -3.73879623      -0.03068256
C       -0.77273941      -3.44353104       0.48555851
H       -0.85866356      -5.12636852       1.97301769
H       -0.05322266      -3.58681107       2.57586002
H       -1.83741951      -3.63050842       2.51501560
C       -0.87397575      -4.00654697       1.92374325
