40
Properties=species:S:1:pos:R:3 pbc="F F F"
H       -3.77893066      -0.36426353      -0.43884039
H       -2.41016626      -0.29842186      -1.69054556
H       -3.69117928      -1.41617203      -1.80252266
C       -3.07692719      -0.93034172      -1.08344793
H       -1.66601133      -2.68742180      -0.85839415
H       -3.03307629      -2.53596210       0.31067038
C       -2.28230000      -1.92188168      -0.25636816
H       -2.11099672      -0.60428619       1.35734701
H       -0.67819881      -0.54406548       0.22137737
C       -1.39541340      -1.24663162       0.74087811
H       -1.46324062      -3.01373577       2.00826979
H       -0.56497002      -1.65641403       2.71761560
C       -0.74228477      -2.25702286       1.75808954
H        0.42625046      -3.59309959       0.37764025
H        0.98914814      -3.61941528       2.06546926
C        0.58872509      -2.92573357       1.26330137
H        2.08033657      -1.50036621       1.97543669
H        2.53062725      -2.49600029       0.50400877
H        1.38399601      -1.11263752       0.37701321
C        1.74345398      -1.94206429       1.02969551
H       -1.39553261       2.36341476       1.93547010
H       -2.40354156       3.46639824       0.82332325
H       -2.00120401       1.81853485       0.35010433
C       -1.53774738       2.73732758       0.87965584
H        0.28355980       3.99481964       0.75627899
H       -0.50987816       3.63462830      -0.84714174
C       -0.25166225       3.23502922       0.17789507
H        0.01763248       1.26194096      -0.65260077
H        0.79772949       1.46581554       0.88096952
C        0.60465336       2.01578522      -0.07342625
H        2.41956425       3.00153160      -0.27654934
H        1.71359730       2.62700462      -1.95213366
C        1.86579132       2.29419327      -0.91417742
H        2.95860386       0.47866249      -0.05309057
H        3.76469612       1.36940575      -1.28591824
C        2.72396564       0.98978615      -1.01662111
H        2.13037205       0.79355240      -2.98845506
H        2.77091980      -0.85763550      -2.30179548
H        1.04175568      -0.09113693      -1.93152666
C        2.15791416       0.06686211      -2.08694983
