40
Properties=species:S:1:pos:R:3 pbc="F F F"
H       -2.60239124       2.03384209       2.64669609
H       -4.26231670       1.35356903       2.60827637
H       -3.39436531       1.76408005       4.15884876
C       -3.28151131       1.34553337       3.13590622
H       -2.76341248      -0.28833389       1.74477291
H       -3.43505859      -0.89552689       3.30241394
C       -2.72854233      -0.11932755       2.85515022
H       -1.28305817      -1.43657303       3.32324314
H       -1.19264507      -0.04155540       4.39992905
C       -1.32789898      -0.33180618       3.36050701
H       -0.37154484       1.38666153       2.60293961
H       -0.40607452       0.01902008       1.39459610
C       -0.25482368       0.30491447       2.45279503
H        1.20082092      -1.24967766       2.69295979
H        1.56198978       0.20064926       3.70520496
C        1.25736046      -0.10635757       2.71787739
H        2.40307236       1.54231453       1.83878613
H        3.37519073       0.12664795       2.09586620
H        2.17283821       0.25276184       0.69790459
C        2.33588219       0.47943687       1.79049492
H       -2.92318630      -1.04183960      -2.06547689
H       -2.12145233      -1.44450378      -0.53139687
H       -2.20686150       0.26776505      -0.95901012
C       -2.10516262      -0.72672272      -1.37948322
H       -1.01063347      -0.31320190      -3.17774725
H       -0.67006016      -1.91513252      -2.53529263
C       -0.89639950      -0.85569572      -2.27676868
H        0.43092155      -0.51846123      -0.59494591
H        0.08339024       0.87965775      -1.49227715
C        0.35998917      -0.18337822      -1.66079617
H        2.04683495      -1.35919571      -2.43818712
H        2.54334831       0.28446579      -1.80129671
C        1.76430798      -0.32938385      -2.42718124
H        1.38486099       1.17132759      -3.82734632
H        0.98690033      -0.52620125      -4.47103405
C        1.71372032       0.09302521      -3.82129622
H        3.59518623      -0.97167969      -4.30035019
H        3.17750740       0.35713005      -5.48230410
H        3.73774910       0.74328041      -3.87183142
C        3.10545921       0.04836273      -4.41115665
