40
Properties=species:S:1:pos:R:3 pbc="F F F"
H       -2.04427910       1.03905678       0.02188015
H       -3.49076080       1.26861382       1.00148964
H       -2.05243587       0.61177063       1.73965073
C       -2.62730122       0.60010719       0.82286453
H       -3.62205982      -0.82006645      -0.46810913
H       -3.90062714      -1.07784653       1.30561638
C       -3.08753586      -0.81585884       0.51326275
H       -2.29312038      -2.78536224       0.99479198
H       -1.18489075      -1.40312576       1.43532562
C       -1.88807678      -1.79908752       0.69300079
H       -0.82009506      -1.17368889      -0.97303581
H       -1.94388008      -2.45308876      -1.37869835
C       -1.19072914      -2.10637474      -0.62190437
H       -0.84584999      -4.16605568      -0.23492050
H        0.38971138      -3.15108681       0.43338394
C       -0.23040867      -3.27129555      -0.46312141
H        1.32566833      -2.71373177      -1.88207722
H        1.37031364      -4.43883133      -1.52735329
H        0.10936546      -3.99701118      -2.47392273
C        0.67400932      -3.59042740      -1.66613102
H       -1.21697044       2.15633202      -1.79310894
H       -1.60371208       3.77217102      -1.06513214
H       -0.18828201       3.57184029      -2.28261757
C       -0.75622559       3.12007713      -1.45959663
H       -0.18059158       2.33394432       0.54352951
H        0.48486233       3.91597557       0.12418938
C        0.26743031       2.88930893      -0.30381298
H        1.99020576       2.66571426      -1.55844498
H        1.26297188       1.11634445      -1.02450848
C        1.51774216       2.17364883      -0.69211960
H        2.67268562       3.17702103       0.82012081
H        3.60622215       1.83930206       0.09117508
C        2.60742760       2.17012787       0.42660713
H        1.13545418       1.14903259       1.71627617
H        2.66717720       1.37671280       2.43245888
C        2.20374870       1.12825966       1.51642799
H        2.37063217      -0.63424492       0.33628654
H        3.76591492      -0.46055222       1.41159058
H        2.07959938      -0.88594437       2.14337349
C        2.66675758      -0.33151054       1.34532356
