40
Properties=species:S:1:pos:R:3 pbc="F F F"
H        1.35590172       1.48864269       0.36636162
H        0.13682365       2.59938145       1.09945297
H        1.62040901       3.24726391       0.66487694
C        1.16697884       2.31489992       1.08107376
H        1.43735886       2.88546181       3.07053947
H        2.84100342       2.04451275       2.32659721
C        1.74769020       2.04375553       2.46176720
H        0.38814735       0.39545083       2.53236198
H        1.31809616       0.62788272       4.05790901
C        1.36711502       0.63931370       2.98068428
H        3.34921455      -0.07155669       2.97441483
H        2.72911835      -0.28777480       1.46564674
C        2.39009285      -0.36062384       2.51352501
H        1.76461220      -1.92687047       3.92927551
H        3.00238228      -2.39278364       2.75684166
C        2.09004211      -1.85393858       2.85309792
H        1.33945465      -2.43452501       0.86941338
H        0.95218849      -3.63033032       2.23314476
H        0.08835793      -1.93801177       1.98211098
C        1.02954102      -2.49149036       1.94546700
H        0.46608543       1.10980558      -4.28741646
H       -1.02850533       1.68226743      -5.16163635
H       -0.28792572       2.67200089      -3.93227673
C       -0.56078911       1.63224959      -4.16088772
H       -1.75105476       0.02900314      -3.71079540
H       -2.29781246       1.54441643      -2.94384670
C       -1.42321587       0.92023802      -3.17926502
H       -0.10780716       1.40671134      -1.52262783
H        0.09270096      -0.34492075      -2.18190193
C       -0.66197395       0.48096514      -1.91699600
H       -2.43537521       0.49497318      -0.66687965
H       -0.90375328      -0.08662510       0.22356987
C       -1.56022453      -0.13300526      -0.77617264
H       -2.03428841      -2.00032926      -0.02360344
H       -1.22425652      -2.20457602      -1.58453083
C       -1.94770813      -1.59516382      -1.04474640
H       -3.80380058      -2.66720676      -1.61253357
H       -4.01899624      -0.83946919      -1.16280174
H       -3.24347305      -1.37145901      -2.81682014
C       -3.38237476      -1.62853992      -1.70242405
