40
Properties=species:S:1:pos:R:3 pbc="F F F"
H       -2.12422347      -1.84388351       4.41306877
H       -2.37885618      -2.52682018       2.84297371
H       -0.82383132      -2.89595032       3.58851433
C       -1.60115445      -2.10367107       3.49514008
H       -0.99648112      -0.97626209       1.65412331
H       -0.19595134      -0.54053593       3.15001297
C       -1.14160609      -0.80424690       2.72684097
H       -2.02221394       0.68668079       3.90403557
H       -3.15231133      -0.02255440       2.67953682
C       -2.08348942       0.41059017       2.80654716
H       -2.81815147       2.32889843       2.20457649
H       -1.84833479       1.50415993       0.88001060
C       -1.89946187       1.71315765       1.99242783
H        0.25758958       1.83813858       2.31145668
H       -0.61573207       2.76918983       3.52136421
C       -0.62391317       2.47193146       2.40799713
H        0.59267080       4.17512894       1.81226730
H       -0.31462646       3.40027237       0.45274162
H       -1.25143075       4.41788864       1.59176826
C       -0.35094702       3.70752335       1.52259827
H        0.77077639      -0.27126598      -5.10141373
H        1.37358439      -1.74625874      -5.91748047
H       -0.32161748      -1.56508446      -5.25375366
C        0.74116790      -1.35506153      -5.10401344
H        2.23839283      -1.27775574      -3.67160988
H        1.37204778      -2.82710838      -3.56845665
C        1.24083173      -1.74899673      -3.71208382
H       -0.68208480      -1.44687271      -2.79520607
H        0.24402308      -0.02935791      -2.81097031
C        0.32659471      -1.09296703      -2.67606544
H        0.71680915      -2.43986416      -0.89254570
H        0.03225780      -0.80665874      -0.63101959
C        0.75913131      -1.41453266      -1.23711967
H        2.87878656      -1.46331024      -1.47655296
H        2.40869188      -1.19315338       0.24504280
C        2.15202618      -0.91560268      -0.81846237
H        1.45413291       1.29070759      -0.48429298
H        3.25344229       1.03540516      -0.78964806
H        2.19996309       0.86012268      -2.18900681
C        2.23349714       0.69796944      -1.07327271
