40
Properties=species:S:1:pos:R:3 pbc="F F F"
H        0.92953825       0.92889810       1.77915049
H        1.99216080      -0.23715401       2.62585974
H        2.63351202       1.43182015       2.23982859
C        1.99018812       0.59276891       1.93002605
H        3.61228228      -0.30823612       0.75595093
H        2.55190468       0.80575585      -0.08203292
C        2.55286694      -0.00583851       0.62873101
H        2.17368698      -1.34751749      -1.05111206
H        0.65711284      -0.59865987      -0.30259800
C        1.67776537      -1.06081212      -0.04932547
H        0.78202176      -2.07830310       1.72259998
H        2.40968990      -2.50443912       1.15793037
C        1.39646626      -2.27473903       0.83386517
H       -0.14497900      -2.99564719      -0.35625148
H        0.53092098      -4.09708309       1.04923058
C        0.74061227      -3.44506407       0.19967604
H        2.50111008      -4.62954140      -0.28124142
H        1.11619711      -4.94972515      -1.27219391
H        1.99102449      -3.40623474      -1.54399478
C        1.64209390      -4.14047146      -0.74610591
H       -0.37399101      -0.74679410      -2.52142453
H       -2.03248262      -1.39863396      -2.71913290
H       -1.65825558       0.09276724      -3.56638479
C       -1.48167825      -0.49188542      -2.62420177
H       -1.37393963      -0.05372441      -0.46407413
H       -2.88154078       0.08785677      -1.28642583
C       -1.86677563       0.34643197      -1.38465357
H       -1.88471508       2.12595391      -2.50914240
H       -0.45557261       1.98784590      -1.45130837
C       -1.51788306       1.84877896      -1.49239576
H       -3.07514811       2.86662555      -0.27612591
H       -1.61947823       3.77817655      -0.72851419
C       -2.01893950       2.80475402      -0.39564657
H       -0.39031756       2.88009620       0.83927441
H       -1.37321949       1.45488238       1.21963739
C       -1.38224649       2.53294396       0.96361375
H       -1.49704361       3.22659469       3.04807615
H       -1.79586744       4.43043804       1.90866280
H       -3.05769634       3.15713286       2.12896109
C       -1.99940312       3.38997388       2.07320547
