40
Properties=species:S:1:pos:R:3 pbc="F F F"
H        3.17375183      -2.93324018      -2.18756485
H        2.37469101      -1.26990366      -2.28498459
H        3.19259262      -2.08077240      -0.83585358
C        2.55426979      -2.22584152      -1.68159676
H        1.44457626      -3.88311672      -0.86751747
H        0.65832710      -3.03612804      -2.27907181
C        1.27148438      -2.88831806      -1.34528732
H        0.26434517      -1.12962246      -0.83449554
H        1.12373924      -1.92489219       0.57351303
C        0.48858070      -2.07674336      -0.28949356
H       -0.57773781      -3.70807195       0.61157417
H       -1.55147552      -2.98745203      -0.81321716
C       -0.83861542      -2.76479769       0.05761909
H       -2.07777596      -1.11320210       0.64711761
H       -0.67777061      -1.50581741       1.75964546
C       -1.47890663      -1.92902350       1.14197159
H       -1.80465317      -3.19840693       2.70587921
H       -2.89123917      -1.84283304       2.66292763
H       -3.13232422      -3.27509928       1.51008224
C       -2.40864372      -2.60774469       2.01920319
H        1.66056061       3.43225479       3.63031006
H        2.10766220       4.15715790       2.02625465
H        0.55922699       4.44764805       2.95000076
C        1.30941772       3.70110607       2.64198112
H       -0.10908508       2.07418633       2.43371964
H        1.40040588       1.63867140       1.85144234
C        0.72186089       2.49652195       1.87711906
H        1.19885063       3.18930149      -0.12122917
H       -0.32900047       3.84745216       0.51773071
C        0.29305840       2.94751453       0.44538879
H       -1.34856415       1.48438644       0.01922798
H        0.21404266       0.92007923      -0.28227806
C       -0.40534973       1.82548237      -0.41271019
H        0.42015648       2.56594372      -2.18940926
H       -1.18935204       3.19148064      -1.83924103
C       -0.58884811       2.28717756      -1.84627342
H       -1.17415619       1.62021160      -3.80881882
H       -0.54580116       0.30014277      -2.77176666
H       -2.19236755       1.00113010      -2.59098244
C       -1.11000061       1.25319958      -2.80080414
