40
Properties=species:S:1:pos:R:3 pbc="F F F"
H       -0.11162758      -3.44491577       1.05434799
H       -1.56525040      -3.25667381       1.65498924
H       -1.22906113      -4.74291801       0.51452637
C       -1.09602165      -3.61412811       0.73834610
H       -1.24658394      -1.68037033      -0.27494240
H       -2.64309502      -2.72945404      -0.52381706
C       -1.52601433      -2.75129318      -0.43115425
H       -1.51121140      -4.22214317      -1.90217018
H        0.10066795      -3.28454971      -1.96491623
C       -1.04118538      -3.21968842      -1.86737251
H       -2.59440804      -2.28000641      -2.91672134
H       -1.51389503      -3.11490059      -3.91290474
C       -1.58634949      -2.40119934      -3.03647614
H       -1.51060295      -0.28653717      -2.61890602
H       -1.33585358      -0.78531265      -4.38765907
C       -1.03289986      -1.05196762      -3.31444931
H        0.92644691      -0.95859909      -2.30125618
H        1.07992744      -1.70651245      -3.87281036
H        0.83841133      -0.00841141      -3.74479866
C        0.54705238      -0.98562622      -3.30417442
H       -0.39883423       0.31825638       3.20395470
H        0.39865112      -1.18154144       2.57720947
H        1.43338966       0.20627785       3.10065842
C        0.44693947      -0.11027145       2.62549210
H       -0.77396202       0.22887039       0.95676041
H        1.02595901       0.02071762       0.54555130
C        0.26749992       0.45188713       1.23742294
H       -0.38081741       2.42204666       1.90574646
H        0.13481712       2.36993408       0.19063568
C        0.41855240       1.99346733       1.21504974
H        2.52542877       2.03201485       1.12628937
H        1.83573723       2.38024712       2.81752777
C        1.74113464       2.54631424       1.73113823
H        2.19081497       4.34108353       0.51997948
H        2.95037270       4.31373215       2.16556740
C        1.97448921       4.08966827       1.58291626
H        0.90843582       5.98947525       2.02755165
H       -0.04166222       4.55035210       1.47481537
H        0.60571289       4.66550446       3.24682617
C        0.78893471       4.89703941       2.16119957
