40
Properties=species:S:1:pos:R:3 pbc="F F F"
H       -0.03112054      -2.16221833       3.76792908
H        0.30012918      -3.22501993       2.25923157
H        1.63673401      -2.92774773       3.47773361
C        0.75860596      -2.47933125       2.94535446
H        0.52799392      -0.66943002       1.63587189
H        2.10217834      -1.71145558       1.48036194
C        1.32060695      -1.26724482       2.17994690
H        2.83031344      -0.94088221       3.67892456
H        1.35470748       0.02280045       3.91557312
C        2.04565024      -0.37599874       3.14428329
H        3.62330985       0.44025230       1.84469223
H        3.05908942       1.55104923       3.22512054
C        2.76220155       0.81393337       2.47087097
H        1.67671442       1.07006645       0.70073318
H        2.42179656       2.56248283       1.34772110
C        1.87360120       1.65509510       1.55074310
H        0.49911427       2.44744587       3.09062958
H        0.00598645       2.88989353       1.38816071
H       -0.23860610       1.24683046       2.25990677
C        0.45276165       2.10991573       2.08804321
H       -4.09853458      -2.14769983      -2.52877045
H       -3.19984555      -3.07547808      -1.43411636
H       -4.02560043      -1.46726656      -0.86469460
C       -3.44671583      -2.00061178      -1.63101959
H       -1.88596523      -1.40768433      -3.12265396
H       -1.37630200      -1.95470071      -1.58010483
C       -2.16167569      -1.38367367      -2.05819511
H       -1.92670691       0.02610707      -0.44112587
H       -2.68360567       0.75452280      -2.07561493
C       -1.91906691       0.06169248      -1.60307693
H        0.21730256      -0.11374927      -1.16673279
H       -0.45408642       1.54048920      -1.29923630
C       -0.43360913       0.55419922      -1.76811218
H       -0.07474875      -0.18325043      -3.88198471
H        1.15260839       0.89521360      -3.16360092
C        0.03657532       0.69651079      -3.26947975
H       -0.55342984       2.80306625      -3.38447189
H        0.02342105       1.96542072      -4.98657036
H       -1.59520233       1.53185368      -4.18491364
C       -0.57658219       1.85460186      -4.00747681
