40
Properties=species:S:1:pos:R:3 pbc="F F F"
H        2.97075272      -1.62924385      -2.50965309
H        3.67628098      -1.47660255      -4.17098618
H        3.58213615      -0.07217789      -2.95399094
C        3.02721405      -0.95031548      -3.38462257
H        1.18481445      -1.44515228      -4.57730865
H        1.56782341       0.33186340      -4.49564743
C        1.59540367      -0.62579727      -3.93600845
H        0.77885056      -1.42035675      -2.11718369
H       -0.46756363      -0.59284401      -3.26239967
C        0.52669144      -0.58479691      -2.79045868
H        1.42332840       0.52311516      -1.25072479
H       -0.28365898       0.49469185      -1.11216545
C        0.52102089       0.59844589      -1.83371544
H       -0.63679886       1.83840179      -3.15438080
H        1.02274895       2.25417519      -3.21019363
C        0.21966362       1.92377472      -2.47702408
H        0.29243469       3.92526054      -1.66672897
H       -0.84029388       2.90159607      -0.87402534
H        0.92702293       2.69213104      -0.50088120
C        0.17178345       2.93369675      -1.34630394
H       -2.22384262      -2.77605057       1.32677078
H       -2.91259384      -3.17363930       2.99156189
H       -3.90381432      -2.57679749       1.66770935
C       -2.94916916      -2.47257233       2.16800690
H       -3.44207764      -0.61737251       3.21726990
H       -2.53286934      -0.35679054       1.80534172
C       -2.60096741      -1.04228783       2.65199471
H       -1.30173874      -1.92515755       3.99607849
H       -1.36355591      -0.23039818       4.29264641
C       -1.36195755      -0.98274040       3.47341537
H       -0.22968674      -1.61048698       1.74974060
H        0.79238129      -1.29181290       3.13122940
C       -0.08883095      -0.93905258       2.57415390
H       -0.76564598       0.74348259       1.34362221
H        0.94083786       0.27203941       1.15950012
C        0.17142868       0.44458961       1.92910767
H        1.45003700       1.15498543       3.42950821
H        0.85083389       2.46327972       2.32475090
H       -0.34071922       1.76584816       3.50988007
C        0.55240250       1.53100586       2.88211060
