40
Properties=species:S:1:pos:R:3 pbc="F F F"
H       -4.47263813      -1.77705002      -2.75228500
H       -3.17640495      -0.62515450      -3.14768887
H       -3.12302876      -2.05700874      -4.05017281
C       -3.38167953      -1.68791008      -3.04650116
H       -2.31748390      -3.39789391      -2.14657974
H       -2.59943962      -1.99555779      -0.93560410
C       -2.32437134      -2.26220512      -2.01211262
H       -0.90044212      -0.62107086      -2.25696182
H       -0.50149536      -1.92810059      -3.37922907
C       -0.85581970      -1.68946648      -2.36248875
H        0.08842087      -3.30136299      -1.16630745
H       -0.02436638      -1.82914925      -0.34105587
C        0.18317223      -2.21601486      -1.31998825
H        1.90071297      -0.88813210      -2.03278255
H        1.95238304      -2.59257698      -2.55018234
C        1.68694878      -1.92449570      -1.66603947
H        3.60774994      -1.74799728      -0.75842094
H        2.23898888      -1.66111755       0.45918751
H        2.62320518      -3.26668167      -0.24963665
C        2.58370972      -2.18600845      -0.45986271
H        0.19100380       4.82373810      -0.74605274
H       -1.01790428       3.47053909      -0.13530445
H       -0.21425819       4.75815964       0.97440147
C       -0.06137848       4.09300613       0.05637169
H        1.96735191       3.60492325       0.76402950
H        1.50360870       2.97830200      -0.79909611
C        1.14493179       3.12432098       0.21022320
H        1.59844208       1.06251526       0.72436714
H       -0.06665230       1.36204529       0.16156673
C        0.73105621       1.75823975       0.79110050
H       -0.70508575       2.26528931       2.38427258
H        1.09219360       2.30331421       2.77182579
C        0.30926132       1.83024597       2.25635910
H        1.23230171      -0.11508942       2.76472473
H       -0.45730400      -0.16181183       2.29351997
C        0.26015663       0.39028168       2.92046547
H       -1.15724182       0.74298477       4.54697418
H        0.04203796      -0.45610809       4.92411518
H        0.50752068       1.31871414       4.92913914
C       -0.08829117       0.50128746       4.38170338
