40
Properties=species:S:1:pos:R:3 pbc="F F F"
H        3.64037704      -3.04076385      -3.57474709
H        2.13807487      -3.78228378      -3.54009247
H        2.39690399      -2.41707611      -4.78837395
C        2.59692192      -2.85962009      -3.75812149
H        2.76319790      -0.99678135      -2.60752106
H        2.34464550      -2.48431969      -1.71986198
C        2.13562202      -1.90942097      -2.66439819
H        0.14443207      -2.59369946      -2.61272049
H        0.20853662      -1.14200401      -3.61564445
C        0.59098911      -1.59360981      -2.64501190
H        0.71256638       0.41609478      -1.73118591
H        0.70433712      -1.02888966      -0.57066345
C        0.27527905      -0.64485455      -1.54912376
H       -1.67311954      -0.44004917      -2.56828117
H       -1.47310019       0.68924713      -1.23047447
C       -1.26932478      -0.37279892      -1.55072403
H       -1.75597858      -1.33090210       0.28464127
H       -3.21628332      -1.14429188      -0.75021744
H       -1.98318481      -2.38528156      -1.17793655
C       -2.12231493      -1.34115505      -0.72779465
H        1.73986530       3.54159260      -0.05551529
H        2.49414539       1.92704105      -0.16088486
H        0.84899330       2.22994709      -0.76061630
C        1.54122448       2.49591351       0.05372238
H        0.12340975       2.97419453       1.68400955
H        1.71545124       2.36833858       2.26039124
C        0.95653248       2.20740604       1.45561981
H        1.02137184      -0.05937290       1.58897018
H       -0.27243662       0.71971416       0.80692291
C        0.34854078       0.81300545       1.65318298
H        0.24655437       0.71538258       3.76525879
H       -1.02718830      -0.32632160       2.89497375
C       -0.44565010       0.62259960       2.92933273
H       -1.92757416       1.89590931       2.09685135
H       -1.06838894       2.54779148       3.53413391
C       -1.56937647       1.64288235       3.10742950
H       -2.39760876       0.79581070       4.96559906
H       -3.53224993       1.92909527       4.03810501
H       -3.22254038       0.23395252       3.33343887
C       -2.73171663       1.12754536       3.90731812
