40
Properties=species:S:1:pos:R:3 pbc="F F F"
H       -2.41677475      -2.76312828      -3.57741165
H       -3.83609390      -1.78226054      -3.49981308
H       -2.64105606      -1.25960112      -4.53648567
C       -2.78754997      -1.67101955      -3.53499222
H       -2.61070061      -0.86052489      -1.48137474
H       -2.55678177       0.26579499      -2.81997490
C       -2.22281265      -0.72062230      -2.51716709
H       -0.34090805      -0.77235174      -3.64907074
H       -0.31487656      -1.60700381      -2.06240082
C       -0.71264267      -0.72036600      -2.59889412
H        1.06653214       0.37946773      -1.81970024
H       -0.37796021       0.30568743      -0.80898666
C       -0.02392960       0.47905469      -1.84977722
H        0.02800751       2.59567571      -1.49254608
H       -1.48495102       2.00639367      -2.06159210
C       -0.42280579       1.87906003      -2.23696899
H        1.01778030       2.18150020      -3.85870361
H       -0.62715912       1.69198251      -4.32099915
H       -0.24998093       3.33780646      -3.82465076
C       -0.02243042       2.31744123      -3.61760616
H        3.83909988      -2.67474031       1.95727730
H        4.43557739      -1.03873515       1.94899368
H        4.18547821      -1.76852596       3.60367203
C        3.81530380      -1.70925200       2.57758331
H        1.62276840      -1.91728914       2.99254227
H        2.05187225      -1.13587189       1.49685478
C        2.33011246      -1.16693211       2.54398537
H        2.35810089       0.97386956       2.56979370
H        2.70093918       0.23999429       4.14379311
C        2.01923370       0.14011073       3.23314857
H        0.44472885       1.39885783       3.88368607
H        0.20009995      -0.15993690       4.58430481
C        0.51767349       0.32961583       3.62489128
H       -0.48299789      -0.97179151       2.22069359
H        0.14344406       0.54981041       1.56498337
C       -0.38734436       0.11261415       2.45961571
H       -2.36881256       0.82396674       1.68564606
H       -2.32084084       0.14473867       3.39431190
H       -1.76702499       1.77905774       3.04270363
C       -1.80027771       0.76744056       2.64076996
