40
Properties=species:S:1:pos:R:3 pbc="F F F"
H        2.29666519       0.54150391       4.19209099
H        1.82546997       2.26088333       4.04426384
H        0.59218597       1.07824326       4.45120621
C        1.51043701       1.21577835       3.83858299
H        0.20309830       1.29627609       2.19148636
H        1.06025314      -0.18463135       2.29946709
C        1.18328857       0.96027756       2.41938019
H        3.19852448       0.77985191       1.50852394
H        2.44730377       2.33983612       1.39024734
C        2.20035553       1.25737572       1.27087593
H        0.96326828       1.86748695      -0.25772858
H        0.99409866       0.09627533      -0.15777969
C        1.61602402       0.99184990      -0.12026405
H        3.49220276       0.18397522      -1.15520763
H        3.38508224       1.83398056      -1.00109673
C        2.75235748       0.97788811      -1.19490719
H        1.38506317       0.28763199      -2.89626312
H        1.83304596       2.02050400      -2.96345997
H        3.04697800       0.77721405      -3.38946629
C        2.25304031       1.02309990      -2.64187145
H       -0.63394928      -4.07075405       0.16367912
H        0.56674576      -4.20782089      -1.02979279
H        0.83437729      -2.86394310       0.14963722
C        0.04110336      -3.45144844      -0.44775391
H       -1.54946709      -2.94405937      -1.81484604
H       -0.04733276      -2.01682472      -2.08297348
C       -0.72240829      -2.42945004      -1.28964710
H       -0.79105377      -0.92154980       0.38908958
H       -2.30122948      -1.79361916       0.00732613
C       -1.42216110      -1.28708172      -0.46787930
H       -2.65375519      -0.42568207      -2.21325111
H       -1.23748016       0.44306946      -1.77240086
C       -2.06163025      -0.12743568      -1.33474445
H       -3.07296562       1.76454353      -0.78301811
H       -2.24715614       0.87329483       0.53058052
C       -2.83677483       0.75335693      -0.38387108
H       -4.95145798       0.22209740      -0.81489182
H       -4.29102707      -0.60792446       0.51960945
H       -4.62620926       1.10839081       0.79507446
C       -4.23504639       0.37747765       0.05198479
