40
Properties=species:S:1:pos:R:3 pbc="F F F"
H       -1.00567627      -4.13357210      -2.26012325
H       -0.41009712      -4.89665127      -3.75616074
H        0.67228508      -4.65151072      -2.45600748
C       -0.14886856      -4.16723061      -2.96990037
H       -0.43306541      -2.37957144      -4.18922663
H        1.25468826      -2.86668777      -3.93650556
C        0.27518654      -2.76796913      -3.39644051
H        1.13715172      -1.84280205      -1.57235408
H       -0.60184288      -1.56471252      -1.76979709
C        0.36893845      -1.65643501      -2.33743691
H        0.02942467      -0.37419176      -3.87813139
H        1.84443474      -0.53290987      -3.48662353
C        0.81258392      -0.40381050      -3.02469826
H       -0.21938133       0.79835320      -1.57655001
H        0.83525276       1.77237558      -2.73162746
C        0.80488777       0.82051134      -2.10885549
H        1.97666359       1.74274778      -0.46833658
H        1.72813606      -0.14156628      -0.41992354
H        2.86724281       0.70708895      -1.70885968
C        1.94708824       0.77664328      -1.08197546
H        0.44914246      -0.92441368       4.89103746
H        1.94352913      -0.06300497       4.34893847
H        1.18696022       0.42402601       5.91126204
C        0.95033264       0.08617067       4.88447237
H        0.78342056       2.06968451       3.97212362
H       -0.71302795       1.48431826       4.82368231
C        0.14375877       1.16075754       4.13714933
H       -0.89685059      -0.28602219       2.87379026
H        0.40489006       0.62156582       2.12801218
C       -0.40626907       0.70691538       2.81912851
H       -0.80188751       2.71063089       2.23994637
H       -2.31958008       1.93296003       2.95398808
C       -1.40000725       1.73173189       2.28553343
H       -2.93041420       0.97715616       0.88289356
H       -1.20689201       0.54479980       0.44495583
C       -1.89920998       1.40551519       0.82536316
H       -0.69706345       2.89596128      -0.13146782
H       -2.11306190       2.20283079      -1.17242241
H       -2.41279221       3.48111677       0.15857315
C       -1.79997444       2.59919405      -0.14742041
