40
Properties=species:S:1:pos:R:3 pbc="F F F"
H        1.10596943       3.31475925       3.81424379
H        2.77523327       3.88053513       3.52043486
H        1.39822865       5.00166416       3.19852638
C        1.70669842       3.89579868       3.12117052
H        2.16355991       4.12812805       1.04317713
H        0.59869671       3.42140198       1.27790260
C        1.64501476       3.40525055       1.72029114
H        1.65465975       1.31153679       2.38343191
H        3.25119972       2.01526260       1.81848001
C        2.18636322       1.97924614       1.64738178
H        2.40480757       1.85831451      -0.52017975
H        0.74728632       1.25221539       0.17472410
C        1.86339331       1.32467556       0.29382467
H        1.83710527      -0.65924168       1.08594847
H        3.48896217      -0.10677433       0.48170757
C        2.38376427      -0.10429859       0.31476641
H        1.31804943      -0.35056877      -1.57278061
H        3.08300781      -0.50636482      -1.67589974
H        2.38307095      -1.89399910      -0.92338753
C        2.21098804      -0.75888062      -1.02725244
H       -4.12941122       0.73986721      -1.02153134
H       -2.99146366       2.07395172      -1.37485504
H       -3.98717332       1.38183308      -2.75651693
C       -3.41246390       1.10527992      -1.84961367
H       -1.50296521       0.35089874      -2.57537961
H       -2.83933163      -0.69966698      -2.99574518
C       -2.43166685       0.00113869      -2.19843221
H       -3.28720427      -1.19157219      -0.64523649
H       -1.80481386      -0.37662601      -0.01275730
C       -2.24290228      -0.92891026      -0.92850590
H       -0.46163130      -1.80265141      -1.40869474
H       -1.86238194      -2.82953787      -1.88374662
C       -1.43773437      -2.20680285      -1.08361554
H       -2.37302136      -3.24143839       0.52901888
H       -0.82330704      -2.63579607       0.98397350
C       -1.37301660      -3.11011553       0.13252974
H        0.15652847      -4.49635029      -0.58425760
H       -0.98093653      -5.14859247       0.65126562
H       -1.56109190      -4.91622639      -0.95538068
C       -0.86005878      -4.47732258      -0.19903708
