40
Properties=species:S:1:pos:R:3 pbc="F F F"
H       -2.28192520      -5.02997541      -0.23538971
H       -3.08798409      -4.87961960      -1.81842804
H       -1.21869564      -4.92014217      -1.60672188
C       -2.16437149      -4.57065153      -1.19083405
H       -3.01846313      -2.47561073      -0.77609253
H       -1.63896847      -2.51769543      -1.97710609
C       -2.08167648      -2.99220467      -1.05076790
H       -0.13320351      -3.23399734      -0.09225464
H       -1.63640881      -3.22108746       0.97352219
C       -1.12291241      -2.79151440       0.09847260
H       -1.75002861      -0.84015465       0.65905380
H       -0.66866493      -0.73402309      -0.56096268
C       -0.83212757      -1.29205704       0.31962585
H        0.12462044      -1.07136631       2.30265427
H        0.52137375       0.16482162       1.25920105
C        0.43895340      -0.92419529       1.23259354
H        2.21776962      -0.80488491       0.09100723
H        2.43664169      -1.40984249       1.76230240
H        1.81810188      -2.48559284       0.47492599
C        1.82195663      -1.50151157       0.87640762
H        3.28525543       1.10851002      -1.83008003
H        2.91592979       1.91390419      -3.35201263
H        3.23520470       2.94725513      -1.97784805
C        2.68794823       1.97429752      -2.28216553
H        1.02441406       0.84593678      -1.76613808
H        0.50509071       2.47409630      -2.39636993
C        1.26079369       1.94830227      -1.81820679
H        1.35460854       3.52547359      -0.51747513
H        1.77262115       1.98618317       0.32400131
C        1.04842949       2.45982647      -0.38496780
H       -0.81038094       1.50155926       0.12298203
H       -0.93024445       3.06631374      -0.72622108
C       -0.41762638       2.53628063       0.03938293
H       -1.67371178       3.79314804       1.38516235
H        0.12637520       4.00992680       1.64731598
C       -0.66135788       3.24644470       1.43009186
H       -0.54784584       2.77609730       3.58776855
H       -1.54589939       1.57546997       2.62619781
H        0.29669571       1.61420345       2.51365280
C       -0.67029190       2.22811413       2.63369370
