40
Properties=species:S:1:pos:R:3 pbc="F F F"
H       -0.20335221      -1.98475266       3.13986015
H        0.04825377      -2.49996376       1.50735474
H        1.06364155      -1.22627449       2.11166763
C        0.01404071      -1.61338997       2.12682152
H       -2.02899647      -1.25944710       1.69343948
H       -0.88740242      -0.67700577       0.42995071
C       -0.99361491      -0.72546387       1.50580215
H        0.16130614       1.13697815       2.03297234
H       -1.19259953       0.64977455       3.12237167
C       -0.84388542       0.76551056       2.13895416
H       -1.45582783       1.91217041       0.38891983
H       -1.54624987       2.79827499       1.89329338
C       -1.73242211       1.81560898       1.46908569
H       -3.52554560       1.31381989       2.65320206
H       -3.43203282       0.58718109       1.04606247
C       -3.21890593       1.50914764       1.60787201
H       -5.06970358       2.37473106       1.10963440
H       -4.00060272       3.66210556       1.51033974
H       -3.85163832       2.70433044      -0.17082977
C       -4.04431915       2.65353775       0.92855453
H        0.45666170      -4.02235413      -3.03445435
H        0.36666346      -3.80163956      -1.21040726
H       -0.58264101      -2.75325012      -2.33303070
C        0.41433954      -3.23197937      -2.21384048
H        1.18110299      -1.76317406      -3.50197887
H        2.38595533      -2.55386925      -2.51338673
C        1.40057397      -2.13134766      -2.48424911
H        1.69822836      -1.23523903      -0.64535522
H        0.21820927      -0.58885002      -1.39638901
C        1.27083874      -0.93912697      -1.61178398
H        1.58497667       0.59007645      -3.07281590
H        3.09236097      -0.29680824      -2.55218697
C        2.13991070       0.16450691      -2.19046974
H        1.45526147       1.67989349      -0.73207283
H        2.79535723       2.10393906      -1.87026024
C        2.37975264       1.28487778      -1.20100212
H        3.01593828       0.12948227       0.49873352
H        4.38125896       0.76246643      -0.58684540
H        3.62322140       1.78490829       0.56441307
C        3.46187925       0.92053795      -0.15788841
