40
Properties=species:S:1:pos:R:3 pbc="F F F"
H        0.55153275      -0.07258844      -2.64936066
H        0.47387314      -1.41670895      -3.75336838
H       -0.58150864       0.21095467      -3.95545197
C       -0.20171165      -0.58257675      -3.25975418
H       -0.92164612      -2.35730362      -1.97168541
H       -2.14178658      -1.59526014      -3.13790894
C       -1.29599571      -1.33545828      -2.39449501
H       -2.17911816       0.49051666      -1.49819183
H       -1.30869675      -0.49303913      -0.36414337
C       -1.97802830      -0.54199362      -1.27255249
H       -3.87625313      -1.43011665      -1.59577179
H       -3.67743874      -0.46028471      -0.09387207
C       -3.25479603      -1.20120859      -0.71574211
H       -2.26270962      -3.25077581      -0.46181679
H       -3.92189312      -3.16733122      -0.05834198
C       -2.98381901      -2.53361130       0.03617859
H       -3.37996674      -1.86721468       2.04615784
H       -2.47460461      -3.45523071       1.95087051
H       -1.63854694      -1.99023390       1.62877655
C       -2.64162159      -2.50449562       1.47966003
H        2.99599648       3.03491974      -1.81466293
H        2.87969398       3.37829781      -0.03424072
H        4.39805794       2.72520256      -0.72083282
C        3.25616837       2.68154335      -0.76369858
H        3.06882477       0.56658936      -1.50568390
H        1.53672028       1.22698498      -0.87531662
C        2.66044235       1.25890446      -0.72178268
H        4.16470718       0.63123703       0.59564590
H        2.69483948      -0.46230459       0.64702797
C        3.02056885       0.64004421       0.62183952
H        2.57609177       2.23346424       2.10278320
H        2.72327423       0.51595592       2.73690224
C        2.41047478       1.16540623       1.91009331
H        0.42924881       0.26747990       1.43437195
H        0.37413597       1.90545845       1.01509857
C        0.83908081       1.23812199       1.82638931
H       -1.05567169       1.22806931       3.08217621
H        0.59483528       1.11343384       3.96602440
H        0.10700035       2.63749313       3.40150070
C        0.02025223       1.56764507       3.13712692
