40
Properties=species:S:1:pos:R:3 pbc="F F F"
H       -3.44911575      -1.15214539       1.20182037
H       -4.25558662      -0.34928703      -0.30238724
H       -2.80552101      -1.44168663      -0.44074631
C       -3.30005264      -0.65003395       0.15406990
H       -3.08505440       1.46566963       0.72559929
H       -1.89440536       0.97205925      -0.57666206
C       -2.39869881       0.60354996       0.39445686
H       -0.79879761      -0.51108742       1.37817574
H       -1.99033546       0.20501328       2.46230888
C       -1.34475136       0.45619774       1.59575462
H       -0.87032318       2.52403450       1.99551582
H        0.23051643       1.65290260       0.90802002
C       -0.31619453       1.60396385       1.85610199
H       -0.21418571       1.50704765       4.02391815
H        1.10042953       2.37681770       3.28910255
C        0.49958420       1.46684837       3.14814758
H        1.81011772       0.21052742       4.30064201
H        0.82588387      -0.74995232       3.08408546
H        2.14935493       0.25466728       2.48622513
C        1.38052559       0.21011925       3.29258347
H       -0.94515038      -4.00147438      -1.22860909
H        0.86841583      -3.77216911      -1.18364334
H       -0.26175117      -3.16588211       0.03370857
C       -0.14527893      -3.29015160      -1.02509117
H       -1.18541336      -1.34115410      -1.53633022
H       -0.44153214      -2.18300056      -2.85991478
C       -0.31306648      -1.93749619      -1.80122375
H        1.84609413      -1.50359154      -1.89743805
H        0.78133011      -0.63786316      -0.62288094
C        0.87561607      -0.97096062      -1.62902737
H       -0.30189133       0.42704201      -2.65029240
H        1.22421837       0.03214836      -3.56420422
C        0.83520126       0.24907875      -2.57089043
H        0.82132912       1.90208244      -1.18006516
H        1.22148514       2.27215004      -2.86507797
C        1.37465858       1.54253197      -2.03866673
H        3.16265488       2.35433388      -1.07709694
H        2.92529297       0.57588387      -0.95561981
H        3.49087143       1.35948944      -2.63077354
C        2.89365768       1.43387794      -1.69359589
