40
Properties=species:S:1:pos:R:3 pbc="F F F"
H       -0.90341187      -4.51870918      -1.66979790
H       -1.82904339      -4.13784218      -0.16520882
H       -2.59484768      -3.99134064      -1.81939507
C       -1.67360497      -3.88379669      -1.27956009
H       -1.61913395      -1.76422310      -0.66265869
H       -1.33999538      -2.10290527      -2.46131516
C       -1.11791801      -2.45968056      -1.41266823
H        0.88344574      -3.18147087      -1.58645439
H        0.55200195      -2.33722115      -0.02046204
C        0.35934067      -2.36597824      -1.16211128
H        0.27186584      -0.26408195      -1.20257187
H        0.74253654      -0.95436096      -2.81241035
C        0.89009666      -1.04863167      -1.72086525
H        2.94694901      -1.69398689      -1.76763344
H        2.42256355      -1.17070198      -0.17126656
C        2.37850761      -0.92579460      -1.29228020
H        3.88822174       0.61971474      -1.07805634
H        3.05858612       0.60326004      -2.70229721
H        2.19647980       1.31537628      -1.19563103
C        2.92253876       0.54127884      -1.55542183
H        0.34708214       1.44557953       4.80832863
H        1.32354355       0.19000435       4.55556679
H        1.79348564       1.83249092       3.82707214
C        1.01729584       1.08694649       4.05062866
H       -0.56956100      -0.02494621       3.14190292
H        0.92901802       0.05947495       2.18536568
C        0.21010590       0.65390587       2.80100822
H        0.69354630       2.49214172       1.73300362
H       -0.88050652       2.60957146       2.60064697
C       -0.24612236       1.87572479       2.02536201
H       -1.98931694       1.07834435       1.13333130
H       -0.49478531       0.72328949       0.20168114
C       -1.03313828       1.50971794       0.80794334
H       -0.32260895       2.89737511      -0.66222572
H       -1.66829872       3.55548286       0.42098427
C       -1.30193138       2.65916252      -0.14588165
H       -1.95150471       1.59758186      -1.84816551
H       -3.21632862       1.90247917      -0.78207779
H       -2.68919086       3.19182014      -1.89246941
C       -2.38601208       2.38494301      -1.22382736
