40
Properties=species:S:1:pos:R:3 pbc="F F F"
H        1.45746613      -0.82511330       4.53668213
H        1.41263580       0.99741554       4.63511086
H       -0.00998688       0.01590157       4.96808624
C        0.91270256       0.10436821       4.32495689
H        0.37787819      -0.78956032       2.41420746
H        1.59468269       0.58183098       2.26323509
C        0.69429588       0.24815178       2.79611015
H        0.29030609       2.30998421       2.36617470
H       -1.17223167       1.43137550       3.21494293
C       -0.33252335       1.39397621       2.46883202
H       -1.20316696       0.08352280       0.89481926
H       -0.07652283       1.35454369       0.37030411
C       -0.93801594       1.10146904       1.02839279
H       -2.85461140       2.02103996       1.48497009
H       -2.56653976       1.80473137      -0.29970932
C       -2.07530975       2.13020134       0.64912605
H       -0.85935593       3.70496559      -0.18171501
H       -2.54086018       4.26496315       0.18007088
H       -1.31460381       4.06742287       1.44930267
C       -1.69857693       3.59228325       0.49939728
H        0.45606136      -4.36869431      -0.45244980
H        1.88385773      -3.45216560      -0.16628456
H        0.78846264      -3.63690186       1.22444916
C        0.82625008      -3.55144691       0.10338974
H        0.84591770      -1.41349602       0.19827271
H       -0.80066299      -2.27607918      -0.00437355
C        0.24949646      -2.24828148      -0.28141785
H       -0.28223515      -2.82522011      -2.37774467
H        1.33065033      -2.15225029      -2.19474411
C        0.28226376      -2.07081413      -1.82531548
H        0.32703209       0.13890648      -1.65899277
H       -1.20610905      -0.77839661      -1.84633446
C       -0.17714596      -0.66161537      -2.24401093
H       -0.72275829       0.25287819      -4.14863777
H        0.17916965      -1.32235336      -4.22062302
C        0.08412361      -0.39564133      -3.70013809
H        1.58921432       0.43737602      -5.14405823
H        1.61356354       1.04365349      -3.39025116
H        2.21597290      -0.52977371      -3.90438652
C        1.41922283       0.21659660      -4.02974319
