40
Properties=species:S:1:pos:R:3 pbc="F F F"
H       -2.71166611      -0.04364204       3.31968880
H       -2.01927948       0.73267698       4.64287758
H       -3.04452515       1.68422604       3.60153580
C       -2.27185440       0.91887426       3.57363701
H       -0.54428101       0.37121630       2.48802376
H       -0.42972946       1.82744169       3.18637657
C       -1.15633583       1.21250439       2.58607292
H       -2.28890991       2.81979990       1.50133324
H       -2.26490784       1.20942259       0.76858330
C       -1.58371353       1.95102358       1.27797890
H        0.36880493       1.65647459       0.27920723
H        0.04302597       3.32880926       0.99665070
C       -0.37893295       2.43766737       0.45970345
H       -1.61657143       3.80827570      -0.73192215
H       -1.45986557       2.08717585      -1.46054268
C       -0.95244408       2.90591002      -0.92163277
H        0.03313446       3.81162596      -2.69514656
H        1.06840515       3.69171762      -1.28283119
H        0.67440414       2.26533842      -2.22742462
C        0.28950500       3.24242640      -1.82451630
H        0.08355713      -3.32690024      -3.52713585
H       -0.30295944      -4.80150127      -2.43794250
H       -1.55136108      -3.93567610      -3.14775276
C       -0.61960602      -3.77165246      -2.74034691
H       -1.19436646      -3.22332335      -0.77196312
H       -1.03586578      -1.70632458      -1.85362053
C       -0.56824875      -2.77099752      -1.55634689
H        1.53028488      -2.45563364      -1.79034996
H        0.99017715      -3.60430622      -0.57816887
C        0.75959015      -2.57213640      -0.95466042
H        0.26611328      -1.86135530       1.08169365
H        0.03612518      -0.61194181      -0.21931076
C        0.73199081      -1.42170286       0.11873436
H        2.48566818      -1.51902246       1.34634399
H        1.97192764       0.19458532       0.89793587
C        2.13267136      -0.82538462       0.53455734
H        4.17843246      -0.34434557       0.23810959
H        3.61765289      -1.99077082      -0.43258286
H        3.30931473      -0.47718906      -1.39846611
C        3.42451859      -0.89336061      -0.34648323
