40
Properties=species:S:1:pos:R:3 pbc="F F F"
H       -1.29099274       3.84124374       2.26258469
H       -2.42275047       2.53714943       2.49669456
H       -0.77083397       2.54779053       3.51689529
C       -1.33058929       2.72076797       2.50181770
H       -0.75572395       2.05261803       0.39511490
H       -1.14121628       0.79771423       1.53623962
C       -0.62825966       1.75714874       1.44746399
H        1.07857132       0.95749664       2.60695839
H        1.33858681       2.53004837       1.96881485
C        0.85597420       1.56531906       1.68258667
H        1.17668724       1.52495575      -0.51442528
H        1.49563217      -0.03196621       0.43847275
C        1.56272697       1.06783867       0.38026428
H        3.51440239       1.48942757       1.32244110
H        3.15371132       2.59900475      -0.04650497
C        3.03263664       1.54446411       0.28132820
H        4.81196785       1.17551804      -0.97804260
H        4.09403419      -0.23334026      -0.14255142
H        3.40302849       0.54543304      -1.55974960
C        3.86599159       0.70628738      -0.63055611
H       -2.52421379       0.81161118      -0.62785721
H       -2.78506279       1.58270836      -2.33595467
H       -3.24618912      -0.15452290      -1.92661858
C       -2.49047661       0.63213348      -1.76687813
H       -0.31995964       0.75094032      -1.76066971
H       -1.00782204       0.33746529      -3.37945938
C       -1.10122490       0.14077377      -2.30363464
H        0.09645081      -1.58731461      -2.45599556
H       -1.52087784      -2.00018120      -2.67655182
C       -0.87352943      -1.37137222      -2.03752899
H       -2.02395821      -1.53324986      -0.28351974
H       -0.28182220      -1.24267197       0.13452530
C       -0.96612549      -1.78117657      -0.58832169
H        0.15526772      -3.55616760      -0.77921486
H       -1.50646591      -3.92173386      -1.08033943
C       -0.83345795      -3.36157417      -0.43514061
H       -0.28106499      -3.23013783       1.67766762
H       -1.95547295      -3.58303547       1.44658661
H       -0.64492798      -4.81744385       1.18267250
C       -0.93257332      -3.80991554       1.03033829
