40
Properties=species:S:1:pos:R:3 pbc="F F F"
H       -4.67195034      -1.32538176       2.43787193
H       -4.88533020       0.09838486       1.26092339
H       -4.87828732      -1.67469406       0.81375313
C       -4.47356033      -0.89925909       1.45044899
H       -2.52861786       0.01339579       1.95330429
H       -2.68557668      -0.47037840       0.34543419
C       -2.94579411      -0.78359509       1.36443138
H       -2.28142929      -2.08949184       2.96543121
H       -1.13699245      -1.64359426       1.72636795
C       -2.16658711      -1.98328352       1.88489723
H       -3.35808659      -3.60449815       1.02606583
H       -1.73537207      -4.03573751       1.63097954
C       -2.25652647      -3.29177737       0.99568748
H       -2.49491000      -2.44143343      -0.89124680
H       -1.99082255      -4.19731903      -0.94123173
C       -1.84154558      -3.19055414      -0.46466446
H       -0.23774004      -2.73547292      -1.71593189
H       -0.18590164      -1.70782566      -0.29287529
H        0.32885075      -3.45495820      -0.09781647
C       -0.38476753      -2.71385908      -0.66308022
H        0.46287060       4.46276426      -0.23306656
H       -0.29074669       3.99041033       1.38331795
H        1.44167185       4.56378794       1.39624977
C        0.67475796       3.99678564       0.79978180
H        0.40357637       2.11431170      -0.10602570
H        1.07798052       1.97271872       1.57341766
C        1.11529493       2.55716085       0.58646584
H        3.41815424       2.61595011       0.70662308
H        2.62702799       3.11068201      -0.86625290
C        2.53258848       2.40292978      -0.03929138
H        1.64136553       0.69197750      -1.05559731
H        2.88172483       0.35716200       0.15672302
C        2.65279913       1.04039717      -0.67850685
H        4.16027975      -0.03759909      -1.71011734
H        4.66547823       1.60589647      -1.38193417
C        3.78473139       1.01706839      -1.71292686
H        3.16947794       2.46587706      -3.30319023
H        4.35240889       1.18774939      -3.77219200
H        2.58557177       0.66331720      -3.37217140
C        3.45393038       1.35200405      -3.15984154
