40
Properties=species:S:1:pos:R:3 pbc="F F F"
H        0.60867023      -4.25213814      -0.43806648
H       -0.70679379      -4.18014336       0.81245422
H       -1.20455647      -4.63656425      -0.73993111
C       -0.48369598      -4.02292061      -0.19577599
H       -1.86606026      -2.37147903      -0.44589424
H       -0.49364805      -2.37243462      -1.62742043
C       -0.77256203      -2.54711342      -0.50918961
H       -0.76163912      -0.61486244       0.07445908
H        0.78655338      -1.14513588       0.21229172
C       -0.23088551      -1.43401909       0.35740471
H        0.33421230      -2.37175179       2.21549225
H       -1.53117752      -2.16564560       2.06506348
C       -0.46966267      -1.70662117       1.84005737
H       -1.12920284       0.38374138       2.05139160
H        0.54727936       0.27150726       2.34523392
C       -0.35934877      -0.32102966       2.56273270
H       -1.28092718       0.54845619       4.38171387
H       -1.42083406      -1.22172737       4.24850464
H        0.13798904      -0.50440025       4.73443222
C       -0.72668695      -0.37965584       4.06784821
H       -1.93004274       2.73153496       1.32904434
H       -0.20224524       2.46783638       1.34552002
H       -0.64056873       4.07571983       1.09334564
C       -0.98457527       3.02466774       0.86207962
H       -1.29954433       3.42165947      -1.26494217
H       -1.57247925       1.81149101      -0.83203697
C       -0.92666769       2.63048363      -0.60634613
H        0.98922634       1.56018257      -0.47278214
H        1.06821918       3.16247749      -1.19853783
C        0.45539284       2.26207352      -1.12466812
H       -0.13405704       2.22939301      -3.20140839
H       -0.22942638       0.63144875      -2.46480179
C        0.40363979       1.57528114      -2.55244064
H        2.54433346       2.12537575      -2.96766281
H        1.77490520       1.05809593      -4.09912872
C        1.82379627       1.24755669      -3.03995514
H        3.41753197      -0.14450455      -2.58796501
H        2.44782829       0.06071854      -1.28087234
H        1.69976139      -0.88374138      -2.61066437
C        2.31791306      -0.00375938      -2.33848381
