54
Properties=species:S:1:pos:R:3 pbc="F F F"
C        1.15844727      -0.04824066       2.64245796
H        0.30537415       0.55463696       2.20277023
H        0.87485313      -0.40454865       3.66163063
O        2.37659645       0.64510250       2.84304810
H        3.07654381       0.00359154       3.13224411
C        1.34156609      -1.13813496       1.61306000
H        1.85051727      -0.72329140       0.73486900
H        1.92080307      -2.02088165       1.93480682
C       -0.09832573      -1.58761501       1.06599617
H        0.06346703      -2.00467777       0.05460930
H       -0.71574211      -0.70751762       0.92450142
C       -0.85445213      -2.61953449       2.00734138
H       -0.88852119      -2.22917557       3.01819801
H       -0.27753830      -3.60496712       2.02507973
C       -2.26231575      -3.01457500       1.55394554
H       -2.62842751      -3.98470497       2.00196648
H       -2.96168518      -2.28562832       1.83159065
C       -2.41056442      -3.17675304       0.02913666
H       -1.62080002      -3.90643501      -0.22585869
H       -2.22054672      -2.22847939      -0.46086693
C       -3.73112869      -3.79305077      -0.39893913
H       -3.53236389      -4.07463169      -1.46810722
H       -3.90895081      -4.78741932       0.21018600
C       -4.98453522      -2.97634125      -0.17543983
H       -4.85733604      -1.93956375      -0.61606407
H       -5.78671074      -3.48468876      -0.69047737
H       -5.12194252      -2.92231750       0.88730240
C        1.37633705       4.74390984       2.06839943
H        0.36712456       5.09791374       2.11787796
H        1.39539337       3.90072060       2.75707436
O        2.30681992       5.75344276       2.54454231
H        2.41261864       5.68267441       3.52017784
C        1.80645943       4.34881592       0.66931725
H        1.78236008       5.19787025      -0.02243423
H        2.86782265       4.04258156       0.67926788
C        0.91727257       3.21696472       0.05438995
H       -0.13376427       3.55047035      -0.02737808
H        1.06856918       2.30463600       0.81571007
C        1.33945465       2.66563225      -1.30842972
H        2.34527397       2.15130424      -1.10666847
H        1.37839127       3.33792114      -2.18953133
C        0.31214333       1.61142921      -1.77510643
H       -0.37346458       1.35044384      -0.90508270
H       -0.27418327       1.95822334      -2.61120796
C        0.90262985       0.26162720      -2.28232193
H        0.39096260      -0.60638618      -1.85663986
H        1.95308685       0.20822048      -1.94347954
C        1.02542686       0.21845436      -3.80375671
H       -0.00089645       0.06530571      -4.30020714
H        1.39145851       1.25072002      -4.11767769
C        2.07373428      -0.80911732      -4.27474403
H        3.06115913      -0.39821625      -3.83946800
H        1.96208763      -1.76285362      -3.80469322
H        2.23946381      -0.88297272      -5.39686203
