54
Properties=species:S:1:pos:R:3 pbc="F F F"
C        0.13042259      -3.54348040      -1.65381813
H        0.79853916      -4.18493271      -2.18350792
H        0.59373331      -3.46932745      -0.58894730
O       -1.21865606      -4.10433626      -1.57115364
H       -1.04360819      -5.06842041      -1.69708633
C        0.07408571      -2.09735012      -2.34630013
H       -0.44991398      -2.28075361      -3.32361221
H       -0.46417046      -1.35875988      -1.69508553
C        1.48624992      -1.59043407      -2.60362244
H        2.00819111      -2.21915531      -3.39626122
H        2.08319092      -1.84452438      -1.70168495
C        1.60250664      -0.08465862      -2.74754524
H        0.95089531       0.22876358      -3.55639458
H        2.58649826       0.18594074      -3.01307678
C        1.22442675       0.86896610      -1.53882027
H        0.24208021       0.58766556      -1.11017418
H        1.96894407       0.71255016      -0.72370911
C        1.24180746       2.36136627      -1.81721687
H        0.72108078       2.94573689      -0.96933937
H        0.64770603       2.55099583      -2.70096207
C        2.67512226       2.90557480      -1.99114609
H        3.39073277       2.64645481      -1.16296196
H        3.16441822       2.45503139      -2.88876534
C        2.79003239       4.44155788      -2.22052956
H        3.77215290       4.77361202      -2.62414360
H        2.08970785       4.71359539      -2.98616219
H        2.59853554       4.91777992      -1.24136925
C        2.63620377      -0.37199783       2.32536507
H        2.60523272      -0.72564411       1.18434715
H        3.29964352       0.50883770       2.43891907
O        3.11564159      -1.57035923       3.05302811
H        3.61961174      -1.24508190       3.89331245
C        1.16130304      -0.03845978       2.67078781
H        1.05147743       0.51827621       3.59128189
H        0.90884781       0.62954617       1.81804085
C        0.23777246      -1.23376369       2.68757248
H        0.58809280      -1.86296654       3.49994087
H        0.40585423      -1.86434698       1.80353546
C       -1.20150137      -0.87289238       2.98994446
H       -1.39608026      -0.43921566       3.98034668
H       -1.71118045      -1.84205055       3.01239395
C       -1.75854564       0.05736542       1.89667130
H       -1.23858070       1.08892441       2.02540588
H       -1.56206584      -0.35754108       0.84208870
C       -3.30321002       0.10410309       1.99585533
H       -3.61569691       0.80108738       2.81810951
H       -3.80462027      -0.85114861       2.15799141
C       -4.12021399       0.64728928       0.81857872
H       -3.90120173       1.69787693       0.63777161
H       -3.90139818       0.11405087      -0.16571808
C       -5.65293169       0.42730618       0.97728920
H       -6.15841532       1.18243790       0.33151817
H       -5.95808029      -0.60312271       0.76643944
H       -6.01063824       0.65207100       2.00266457
