54
Properties=species:S:1:pos:R:3 pbc="F F F"
C       -4.74137592       0.82833672       0.33109665
H       -4.85549641       1.30561447      -0.62275314
H       -3.91664219       0.15295029       0.20929718
O       -5.86135340       0.08725739       0.69472122
H       -6.20551491      -0.12773514      -0.20581818
C       -4.31944895       1.84591293       1.47637558
H       -4.86847496       2.72335815       1.16423035
H       -4.62720346       1.42943954       2.46957397
C       -2.91601229       2.35882187       1.51901627
H       -2.20310163       1.51492310       1.60682297
H       -2.89939022       3.04584885       2.48168564
C       -2.59183002       3.27304840       0.33457947
H       -3.40878296       4.04912949       0.16662979
H       -2.50332165       2.74788284      -0.63855553
C       -1.25500965       3.95172501       0.43263626
H       -1.16133165       4.35182571       1.41763687
H       -0.45517349       3.09478378       0.40914917
C       -0.91156149       4.90443039      -0.70560265
H        0.06500530       5.35556412      -0.47779655
H       -1.70397568       5.70066071      -0.70717430
C       -0.82533455       4.36336517      -2.12912750
H       -1.89236712       4.17244720      -2.46112251
H       -0.39055347       5.01417160      -2.88171196
C       -0.04294682       3.04924011      -2.27919960
H        0.77229023       3.08154678      -1.47927856
H       -0.60692883       2.09012222      -2.00464630
H        0.47095203       2.93814850      -3.26647949
C        3.13716888      -5.76195145      -1.34075737
H        2.10069561      -6.14694786      -1.29255867
H        3.01243877      -4.88231277      -1.98038483
O        3.84271717      -6.83063507      -1.95039749
H        3.27267075      -7.15173912      -2.69098091
C        3.67875004      -5.59734726       0.06328964
H        3.56904125      -6.57389259       0.65362549
H        4.74576950      -5.23724937       0.05229568
C        2.87315750      -4.57014084       0.82460785
H        3.06517029      -4.64292145       1.93732071
H        1.80534935      -4.71425247       0.71596909
C        3.15320587      -3.06118774       0.53027725
H        3.13925552      -2.90296745      -0.54659271
H        4.23649788      -2.78825760       0.71866608
C        2.20652342      -2.05652618       1.18815994
H        1.21317863      -2.27405548       0.76511002
H        2.19468641      -2.33237457       2.26910782
C        2.63890362      -0.61296463       0.90887833
H        2.99904728      -0.44517136      -0.08418274
H        3.42011166      -0.27418709       1.63529205
C        1.30926514       0.30225372       0.99013901
H        0.87366629       0.23639297       2.02070236
H        1.65788221       1.38069916       0.81779480
C        0.16093063      -0.03145599      -0.07163620
H        0.37023115       0.36475754      -1.06053543
H       -0.08173609      -1.15198517      -0.15723991
H       -0.73968506       0.45347023       0.23011017
