54
Properties=species:S:1:pos:R:3 pbc="F F F"
C        1.67668867       5.02393770       0.02872467
H        1.84861469       4.77406025       1.14477062
H        2.49877644       4.98656178      -0.68575191
O        1.08100176       6.29613590      -0.12804127
H        0.40261030       6.29699612       0.60315609
C        0.83193970       3.88376617      -0.56409359
H       -0.20949793       3.95601797      -0.10624409
H        0.61389494       3.92222023      -1.65943813
C        1.15047359       2.41642189      -0.21671009
H        2.12181997       2.01540852      -0.60893059
H        0.39708376       1.81500626      -0.75374985
C        1.04324532       2.11140347       1.26757526
H        0.14673042       2.37032652       1.80050755
H        1.72609758       2.79014301       1.87338734
C        1.39945412       0.62019706       1.51869488
H        0.74241447      -0.05095434       0.97173786
H        2.43007421       0.49298739       1.04233456
C        1.48695946       0.08507204       2.95873547
H        0.43915796      -0.17464828       3.21831417
H        1.80710316       0.88351965       3.60522556
C        2.55712318      -1.00410831       3.25363445
H        2.23776436      -1.92815423       2.63360310
H        3.51949406      -0.70286036       2.72949886
C        2.67728043      -1.13083196       4.74758053
H        2.09216118      -2.07378888       5.03889942
H        3.68661976      -1.26872420       5.00071812
H        2.22716427      -0.21207142       5.22108364
C       -2.82558942      -2.40789747       1.94872761
H       -3.69410372      -3.01371694       1.76638508
H       -1.96754408      -3.12084961       1.93622494
O       -3.13126230      -1.69495821       3.16119671
H       -3.36985016      -2.36771536       3.80810642
C       -2.59489822      -1.40520942       0.86651325
H       -3.54885578      -0.71903801       0.76946735
H       -1.72356153      -0.79679954       1.22250843
C       -2.24784946      -1.89620328      -0.48296642
H       -2.99080753      -2.59908080      -0.93996143
H       -1.34378934      -2.45402479      -0.35584450
C       -2.04356527      -0.67575800      -1.47156239
H       -1.29052997      -0.07795525      -0.97251415
H       -2.97913361      -0.08310819      -1.47395992
C       -1.72764730      -1.03512037      -2.87681389
H       -2.59368348      -1.55011952      -3.35676003
H       -1.56136394      -0.13157392      -3.52323246
C       -0.56420994      -2.00423074      -2.96822929
H       -0.81252003      -2.95941162      -2.42748928
H        0.32718372      -1.47479558      -2.59746552
C       -0.40570784      -2.41638923      -4.47608376
H        0.24315643      -3.28699684      -4.36026573
H       -1.40331078      -2.70129061      -4.80067348
C        0.30069780      -1.46243143      -5.44442272
H        0.07715273      -1.74858761      -6.59654236
H       -0.17231989      -0.53450930      -5.14088058
H        1.41169262      -1.57626128      -5.14879131
