54
Properties=species:S:1:pos:R:3 pbc="F F F"
C       -0.74452019       3.32089376       3.13908768
H       -1.51899719       2.79319048       3.68381691
H        0.13735962       3.18464136       3.75414085
O       -1.13148308       4.65727472       2.85060692
H       -1.91133118       4.79381895       3.38401031
C       -0.40869904       2.66942263       1.76961708
H       -1.23996735       2.59012270       1.03482246
H        0.22308350       3.44282103       1.30718040
C        0.35290527       1.30643511       1.76219940
H        0.09613419       0.80031490       0.77703285
H       -0.00900650       0.63284540       2.59422302
C        1.85571671       1.51796293       1.86927986
H        2.19928360       1.82502794       2.85875320
H        2.05798721       2.35185385       1.11403465
C        2.67481232       0.18664312       1.62602425
H        2.31834030      -0.17126656       0.62927055
H        3.79191208       0.46490812       1.65503693
C        2.30208206      -0.82832146       2.63000298
H        1.20347977      -1.08614874       2.57308769
H        2.55265427      -0.39127016       3.58613396
C        2.88389587      -2.26320505       2.43052292
H        3.92715454      -2.16445732       2.71855545
H        2.52027130      -3.05131006       3.18752289
C        2.68185425      -2.94032884       1.15503311
H        3.25612640      -2.42293024       0.36512566
H        2.99067307      -3.99518394       1.25013924
H        1.57893372      -2.88347077       0.93324089
C       -0.71111679      -4.14858580      -0.57529449
H       -0.13692474      -4.62505817      -1.40490150
H       -0.18291473      -4.27874470       0.36537933
O       -1.97069168      -4.79782438      -0.46089935
H       -1.64805603      -5.70657396      -0.21898842
C       -0.86890411      -2.67192411      -0.90508270
H       -1.28273773      -2.14985323       0.02616692
H        0.16533661      -2.28094196      -1.03843880
C       -1.70625496      -2.23014212      -2.11232567
H       -2.84802628      -2.35830212      -1.97687721
H       -1.46837807      -2.94627285      -2.89906883
C       -1.32122040      -0.83029604      -2.60910225
H       -1.77810478      -0.65208769      -3.63877678
H       -0.27024078      -0.87333012      -2.68090057
C       -1.80633354       0.26441956      -1.63092232
H       -2.94692421       0.22162151      -1.69268227
H       -1.65956116      -0.03993416      -0.53003311
C       -1.46547318       1.64854097      -2.05131721
H       -0.38245773       1.75002241      -1.71643066
H       -2.11928177       2.40702581      -1.51798820
C       -1.46930504       1.98173475      -3.57383156
H       -0.80268669       1.32753325      -4.11443520
H       -2.43347168       1.80107355      -4.09508324
C       -0.97726822       3.40428019      -3.83282852
H       -1.06752396       3.77180243      -4.85427284
H       -1.56428909       4.13130140      -3.26947975
H        0.08212662       3.54015493      -3.63019180
