54
Properties=species:S:1:pos:R:3 pbc="F F F"
C       -0.52621651      -2.70731735       1.33922958
H        0.27091408      -2.42155457       2.01975250
H       -1.26674175      -1.95491219       1.33498192
O       -1.20850420      -3.81485367       1.86038971
H       -1.90748930      -3.95025063       1.18658066
C        0.03047371      -3.06030655      -0.00158882
H        0.68726921      -3.96645737       0.03710938
H       -0.86971855      -3.33281898      -0.57887459
C        0.78092670      -1.98352051      -0.72383499
H       -0.06471872      -1.30051994      -1.09675789
H        1.23007679      -2.55659485      -1.51779366
C        1.84109974      -1.31410980       0.11843109
H        2.65240192      -2.00536346       0.56794548
H        1.43085384      -0.80911636       1.02276993
C        2.76681805      -0.23780632      -0.53964424
H        3.24612141      -0.72083855      -1.46759224
H        2.05681515       0.58789825      -0.85126495
C        3.90934277       0.39816666       0.26938057
H        3.35970116       1.01406479       1.09490013
H        4.39134693       1.19518280      -0.19418144
C        4.78164768      -0.58602905       1.05360031
H        4.08870506      -1.03312683       1.76683807
H        5.18002033      -1.28205872       0.29060745
C        5.97784519      -0.00136566       1.76561928
H        5.60618210       0.80530930       2.31954765
H        6.54956913      -0.58452034       2.59283638
H        6.59373856       0.50474548       0.97223473
C       -3.44166350       1.56195068       2.99502754
H       -2.47960234       1.42466736       3.48637009
H       -3.55267453       2.62356186       2.67069244
O       -4.42144251       1.25276566       3.96177292
H       -5.26018047       1.61672020       3.61341858
C       -3.61359262       0.62004089       1.84128380
H       -3.53511739      -0.42130089       2.13590431
H       -4.61280203       0.70017433       1.50957680
C       -2.56879807       0.88512611       0.66719055
H       -2.67347097       0.10820770      -0.14398193
H       -1.51747417       0.88124657       1.10881233
C       -2.78658485       2.14348602      -0.21631813
H       -2.52195978       3.04392624       0.34508896
H       -3.78358889       2.26150131      -0.57722855
C       -1.86063099       2.05270767      -1.45829582
H       -1.85404587       3.06625748      -1.90810585
H       -0.85110092       1.93449402      -1.12916756
C       -2.20288420       1.00559998      -2.52818871
H       -3.22961831       1.26169395      -2.86380959
H       -2.31645632      -0.04643822      -2.05923271
C       -1.25881290       1.25305748      -3.68102455
H       -1.70248079       0.77608109      -4.58842278
H       -1.24772167       2.37837219      -3.83627129
C        0.15492535       0.78424454      -3.55776596
H        0.49626970       1.01294899      -2.55168343
H        0.31458092      -0.33590698      -3.58156204
H        0.73848724       1.27283287      -4.29494858
