54
Properties=species:S:1:pos:R:3 pbc="F F F"
C        1.08166885       1.42464352      -4.33763599
H        2.12025070       1.64566088      -3.96775055
H        1.02812195       0.44372225      -4.82740116
O        0.74177170       2.49985504      -5.26151323
H        1.17148209       2.23060799      -6.13701582
C        0.07868195       1.47688389      -3.13545799
H        0.03464127       2.58899403      -2.88106441
H       -0.97533417       1.22643042      -3.48858356
C        0.48394775       0.58945036      -1.91099834
H       -0.10768509       0.81613684      -0.95146370
H        1.54777145       0.81389809      -1.69875431
C        0.38061523      -0.92145467      -2.29014874
H        1.05875015      -1.12512851      -3.22472477
H       -0.72154617      -1.08345604      -2.59546375
C        0.89513016      -1.94110274      -1.23654938
H        2.02497101      -1.73512936      -1.25090218
H        0.50573730      -1.68063211      -0.16537857
C        0.74310684      -3.36899662      -1.69608688
H        0.75701523      -3.60244536      -2.78555965
H       -0.24479294      -3.53333569      -1.32356834
C        1.66069412      -4.31105566      -0.93780136
H        1.29018021      -5.39284658      -1.05574894
H        2.65219879      -4.17265606      -1.38688755
C        1.74244690      -4.05616665       0.58156395
H        2.08989334      -2.99829578       0.72321701
H        0.78697586      -4.19522381       1.11007214
H        2.51103973      -4.66864967       1.12312412
C       -3.28215408       3.94738007       0.20196724
H       -3.22054672       4.72651768       0.97084332
H       -2.48952866       4.11897945      -0.55021572
O       -4.50624657       4.11297989      -0.45271111
H       -4.43666649       3.61358452      -1.30009460
C       -3.18648338       2.50876331       0.85810947
H       -4.11845589       2.27887058       1.40143871
H       -3.14328003       1.84786510       0.00983620
C       -1.94257355       2.34973812       1.75951862
H       -2.17193985       2.82567692       2.69740009
H       -1.01291084       2.84156179       1.23453045
C       -1.53363800       0.87814236       1.89570904
H       -1.16613770       0.46152735       0.91841030
H       -2.48616409       0.32252026       2.18099403
C       -0.56091690       0.71356106       3.04051781
H       -0.57066345       1.64019108       3.61751366
H       -0.96533966      -0.19877481       3.59889698
C        0.77688217       0.37396336       2.57385445
H        1.23000717       1.24510956       2.00495625
H        0.64447784      -0.38259268       1.80832672
C        1.77064896      -0.15984201       3.59809780
H        2.83141708       0.13967657       3.23534679
H        1.62876129       0.44543934       4.57957745
C        1.63390732      -1.66292286       3.73293018
H        1.68615341      -2.20746207       2.74224377
H        2.52865982      -2.01938200       4.30548573
H        0.72465897      -1.73083949       4.34504986
