54
Properties=species:S:1:pos:R:3 pbc="F F F"
C        0.53576851       4.48358154       5.22417831
H       -0.02923965       5.37427521       4.91814423
H       -0.12204933       3.69652176       5.67110443
O        1.34841537       4.97283554       6.30014801
H        0.72127533       5.36067009       6.97985840
C        1.46688271       3.77052879       4.20091248
H        2.34746552       4.39032173       3.89404678
H        1.91205215       2.85096359       4.60347748
C        0.76054764       3.28885078       3.00915527
H        0.35031509       4.22024155       2.55249405
H       -0.18199539       2.74165535       3.35502625
C        1.60264969       2.47083473       2.00931168
H        2.19766426       1.71336746       2.55764771
H        2.25974846       3.21408272       1.59111786
C        0.74600029       1.89043999       0.86264038
H       -0.13921547       1.33418655       1.20733643
H        0.43713951       2.82556534       0.31670761
C        1.62261772       1.10484314      -0.10724258
H        1.95677948       0.18799591       0.42856598
H        2.51705170       1.73741913      -0.46017075
C        0.93081474       0.71040535      -1.45037842
H        1.67584229       0.03005028      -2.00114059
H       -0.06969833       0.21179485      -1.24721146
C        0.65616417       1.84544182      -2.40219879
H       -0.17156410       2.46630859      -1.99459839
H        1.44486427       2.60482216      -2.50374794
H        0.24457359       1.43025017      -3.36165428
C        2.09277344      -2.77754879       0.08347702
H        1.86768723      -2.36549187      -0.96865082
H        1.58936310      -2.02383041       0.84546661
O        3.48166466      -2.86968994       0.18167877
H        3.86892128      -2.01842499      -0.11758423
C        1.43927574      -4.09499645      -0.07167435
H        1.92704201      -4.68477058      -0.93891525
H        1.47515297      -4.78204250       0.82759094
C       -0.03512383      -3.98479652      -0.43737030
H       -0.57137299      -3.92672634       0.53430557
H       -0.30457306      -4.95114326      -0.94322205
C       -0.45623207      -2.81107521      -1.34469223
H        0.16086197      -2.79306602      -2.26823997
H       -0.18385124      -1.92591476      -0.78480148
C       -1.94025993      -3.10995579      -1.74989891
H       -1.88772011      -4.04399014      -2.35758972
H       -2.58361435      -3.28697395      -0.85121918
C       -2.51731682      -1.86038780      -2.42809296
H       -1.87610817      -1.36843681      -3.21494865
H       -2.56006432      -1.02382088      -1.72059631
C       -3.91870499      -2.08519459      -3.10231209
H       -3.85641956      -3.00797844      -3.59260178
H       -4.72135067      -2.05747700      -2.32015228
C       -4.29133511      -0.99210358      -4.14953995
H       -4.19367027       0.02481651      -3.74520493
H       -3.64200974      -0.99920940      -5.02443695
H       -5.38399696      -1.10805511      -4.49436951
