54
Properties=species:S:1:pos:R:3 pbc="F F F"
C        2.34141541      -2.48540306      -2.50495720
H        2.29459763      -2.89219856      -1.49719048
H        1.27028465      -2.35449028      -2.85289574
O        3.10186386      -3.35127831      -3.32823181
H        2.45109940      -4.04550362      -3.42983055
C        2.97868347      -1.11202431      -2.47637939
H        4.03162575      -0.89731789      -2.15003204
H        2.95661926      -0.93066788      -3.54473495
C        1.99360657      -0.13969231      -1.75864601
H        2.08619499      -0.52736855      -0.67203140
H        0.94751930      -0.28130531      -2.17320633
C        2.36628914       1.28772926      -1.71753502
H        2.37457657       1.56879616      -2.80824661
H        3.41377449       1.44419670      -1.45010567
C        1.36793709       2.32492828      -1.07994652
H        1.40171051       2.25211143       0.00839424
H        1.70312500       3.37242508      -1.33425522
C       -0.08062553       2.15051270      -1.53087234
H       -0.44907570       1.10675240      -1.21730042
H       -0.30997849       2.39950943      -2.54927063
C       -1.03577042       3.17516899      -0.87111092
H       -1.12256432       2.88887596       0.19316864
H       -0.65861893       4.19925117      -1.01042175
C       -2.41863632       3.20339394      -1.59359741
H       -3.13383675       3.91202736      -1.19959450
H       -2.31888580       3.55857468      -2.56967545
H       -2.86903191       2.19981575      -1.54722214
C       -0.71875954      -3.65787697       0.14771080
H        0.08039474      -4.37057304       0.30047035
H       -1.63438225      -3.72162819       0.82102585
O       -1.01999664      -3.68564987      -1.24386978
H       -1.84041405      -3.11924553      -1.24222183
C       -0.08111382      -2.25684738       0.42804146
H        0.87701416      -2.26697731      -0.09427452
H       -0.55453300      -1.33337212      -0.02378082
C        0.32255745      -2.11285019       1.93493080
H        0.97608757      -2.93866539       2.24529648
H       -0.65060616      -2.18562698       2.47765350
C        0.98824310      -0.76741982       2.24774170
H        2.01355171      -0.71355057       1.71394730
H        1.26642036      -0.79741859       3.38007355
C        0.14785385       0.50767326       2.18641853
H        0.58034897       1.34239960       2.68033218
H        0.05670166       0.75777435       1.16291046
C       -1.21310616       0.23638725       2.80394363
H       -1.12263680      -0.03581619       3.87243652
H       -1.68268013      -0.62866020       2.25976944
C       -2.17966557       1.46029854       2.59349442
H       -1.81550980       2.44280815       2.97045326
H       -2.29599094       1.52464294       1.43724442
C       -3.56010246       1.13680077       3.27000237
H       -4.03804874       0.31683922       2.79681015
H       -3.33028030       0.81962776       4.32113647
H       -4.25523376       2.02011871       3.21792984
