54
Properties=species:S:1:pos:R:3 pbc="F F F"
C        3.92487431      -0.34588909       0.92799497
H        4.55342960       0.46323979       0.53395963
H        4.23860741      -0.82582051       1.94152427
O        4.04562378      -1.47512388       0.03683305
H        4.75426006      -2.00445700       0.44246984
C        2.43960667       0.11008966       0.98487401
H        2.24563217       0.93790114       1.67475390
H        2.20360374       0.31629837      -0.11293793
C        1.45220184      -1.03295267       1.31081843
H        1.73814678      -1.62863433       2.26001573
H        1.50559711      -1.76166904       0.49813938
C        0.12459564      -0.31211555       1.56457734
H       -0.70324373      -0.85721123       1.07962370
H        0.16362190       0.63113391       0.99966788
C       -0.07371712      -0.00130963       3.04106355
H       -0.43377018      -0.90319729       3.62008023
H        0.91480732       0.31132913       3.55565524
C       -1.11643600       1.13161862       3.30909896
H       -2.08620977       0.67271435       2.85842252
H       -0.89704943       2.07113266       2.79903722
C       -1.29506779       1.45483601       4.79768848
H       -1.32074785       0.50841856       5.30085659
H       -0.43549061       2.10165596       5.16177559
C       -2.55197525       2.12211466       5.24584103
H       -2.71115065       3.11895180       4.80833817
H       -3.43621826       1.47693217       5.16217041
H       -2.37170172       2.19622612       6.35647011
C        2.69065571      -1.67937040      -3.14459825
H        3.33486557      -1.00883043      -2.58393788
H        2.81671333      -2.75026655      -2.88738036
O        2.91139889      -1.35168719      -4.51313972
H        3.85182762      -1.64774680      -4.65109634
C        1.30702782      -1.22976065      -2.82966399
H        1.10349083      -1.47585821      -1.75291562
H        1.29566574      -0.15945363      -2.78126502
C        0.24516964      -1.71899617      -3.78986144
H        0.55444717      -2.74519873      -4.08391953
H        0.30471802      -1.02879238      -4.72003937
C       -1.24174881      -1.82155466      -3.21908259
H       -1.28051758      -2.34709549      -2.21298957
H       -1.65959167      -2.43041849      -4.04975700
C       -1.96098471      -0.51842463      -3.16401744
H       -1.62687111       0.18664122      -4.01783276
H       -3.10232544      -0.70477033      -3.43670869
C       -1.88267660       0.29298234      -1.86364198
H       -0.83744955       0.37095475      -1.49464869
H       -2.46926689      -0.32994473      -1.17226386
C       -2.53360271       1.70284760      -1.90491939
H       -1.94155979       2.44556999      -2.52942109
H       -3.48451090       1.52232778      -2.34998250
C       -2.76699686       2.37260246      -0.53662324
H       -1.82904005       2.48325777       0.07510161
H       -3.24678564       3.32848549      -0.64334655
H       -3.42387867       1.76628745       0.09911275
