54
Properties=species:S:1:pos:R:3 pbc="F F F"
C        5.52693176      -3.81073833      -2.14394569
H        5.49918365      -4.27142382      -1.15144920
H        5.07695770      -4.52499962      -2.91729164
O        6.87525177      -3.56988764      -2.56597519
H        7.12815094      -4.42979956      -3.10088921
C        4.74062347      -2.54250479      -2.13055038
H        5.17692184      -1.77223206      -1.40628624
H        4.83526611      -1.99431729      -3.06493378
C        3.25458527      -2.82673264      -1.93828964
H        3.14094925      -2.99766159      -0.86022949
H        3.05453873      -3.81460571      -2.32844543
C        2.28426743      -1.68072057      -2.38015366
H        1.29804611      -2.11186528      -2.29437065
H        2.52193832      -1.52465880      -3.44967842
C        2.28813934      -0.35523725      -1.56874847
H        2.27729416      -0.65215611      -0.50914955
H        3.28486633       0.11639738      -1.75869942
C        1.04737854       0.54529166      -1.71577835
H        0.13802338       0.13014698      -1.35160828
H        0.93746948       0.68485451      -2.82337570
C        1.15202904       1.85027313      -0.98715782
H        0.13337135       2.30234671      -1.14779472
H        1.16376686       1.60822248       0.04326057
C        2.16608429       2.85030937      -1.39023018
H        1.98505783       3.19468355      -2.46347427
H        2.10198975       3.79425240      -0.78189850
H        3.14007950       2.49059725      -1.28543091
C       -3.06632614      -1.63298142      -0.09920502
H       -4.02499390      -2.05128956       0.30667877
H       -3.32753754      -0.62701666      -0.41847992
O       -2.58167458      -2.52790070      -1.16076469
H       -3.31671715      -2.67930532      -1.79826355
C       -2.01495361      -1.60634875       0.99957275
H       -1.32200050      -2.46342111       1.10469055
H       -1.36474800      -0.72267652       0.89459991
C       -2.50133324      -1.37418842       2.45133400
H       -1.64543915      -1.27175426       3.22207642
H       -3.00580788      -2.26247406       2.91094017
C       -3.40496445      -0.06871891       2.64172554
H       -4.03314590      -0.03009367       3.58123589
H       -4.28310013      -0.23281980       2.00766373
C       -2.70833588       1.22659683       2.42072868
H       -1.75384903       1.34046054       2.87108612
H       -2.47200966       1.32257318       1.32902145
C       -3.56938171       2.43090296       2.76291275
H       -3.74506950       2.47369957       3.86320877
H       -4.54010201       2.28102875       2.16292191
C       -2.89850044       3.75662899       2.38517952
H       -1.91238022       3.81757784       3.00711823
H       -2.48981667       3.77053404       1.32455635
C       -3.86851311       4.90467834       2.60075760
H       -4.80293274       4.79217625       1.96646118
H       -4.22125244       4.86535931       3.66733360
H       -3.35402679       5.88094139       2.46767044
