54
Properties=species:S:1:pos:R:3 pbc="F F F"
C        1.84582806      -0.45268095      -3.25366354
H        2.60294628       0.20244789      -3.67551017
H        1.99221516      -0.79327208      -2.19573402
O        1.75089741      -1.59027088      -4.11286116
H        2.52611732      -2.18432498      -3.88434720
C        0.50784492       0.33998561      -3.40980673
H        0.77884293       1.26396680      -2.94027615
H        0.36789799       0.45918417      -4.51267433
C       -0.62548161      -0.34449482      -2.74738455
H       -0.38632774      -0.74060595      -1.74164724
H       -0.84858322      -1.18122864      -3.49346256
C       -1.89437437       0.52969408      -2.50838900
H       -2.83277082      -0.04860663      -2.61396980
H       -1.97242260       1.20486474      -3.40812731
C       -1.89890766       1.32380676      -1.24343681
H       -1.65935946       0.54068255      -0.48357248
H       -1.05924559       2.04144740      -1.12853003
C       -3.23212719       1.99673843      -0.99811363
H       -4.02596998       1.18750548      -0.72618437
H       -3.58326149       2.49240685      -1.93829298
C       -3.10251617       3.09253955       0.03404045
H       -2.61468172       2.84681201       0.98530293
H       -2.40548420       3.74297261      -0.50643587
C       -4.44673395       3.76095986       0.32827377
H       -5.02965498       3.82175088      -0.65806150
H       -4.96633482       3.27716804       1.19479370
H       -4.24249125       4.85535717       0.56090355
C        4.32512760      -3.28593731       0.66135597
H        4.93073559      -2.28147745       0.85830307
H        4.37747574      -3.86612892       1.64928532
O        4.82392406      -4.10570717      -0.45456362
H        5.78005695      -4.30191517      -0.38737917
C        2.92890835      -2.84936357       0.30558777
H        3.00149345      -2.24353838      -0.65719032
H        2.26584530      -3.75130248       0.16667128
C        2.29646587      -1.95538008       1.33198547
H        2.74396229      -0.95123112       1.33802795
H        2.45926380      -2.29616308       2.37176991
C        0.80778217      -1.81679010       1.06168652
H        0.25502491      -2.66378355       1.53048897
H        0.62122250      -1.84768951       0.01237154
C        0.28112411      -0.44702983       1.67889309
H        0.72768784       0.46878326       1.14904404
H       -0.83106804      -0.61931026       1.60474014
C        0.60920334      -0.31965828       3.13007545
H        1.55454350       0.28827238       3.25574017
H        0.70386219      -1.33686662       3.63307285
C       -0.50984478       0.40917540       3.84312057
H       -1.29659891      -0.35470188       3.81384373
H       -0.25346184       0.56394553       4.88975716
C       -0.94474030       1.70786548       3.16962337
H       -0.20623589       2.51614499       3.37413883
H       -1.13240480       1.60162115       2.10509491
H       -1.86517525       2.09336352       3.64160633
