54
Properties=species:S:1:pos:R:3 pbc="F F F"
C       -3.88846493      -1.27003860      -2.67411423
H       -3.98871517      -0.19765472      -2.71241045
H       -3.83656263      -1.77692413      -3.71923828
O       -4.84069586      -1.92393684      -1.82340956
H       -5.06864691      -1.23808289      -1.17397499
C       -2.44682884      -1.53872871      -2.11369610
H       -2.33690596      -1.13571548      -1.12391329
H       -2.36756563      -2.62967491      -2.06070137
C       -1.33958888      -1.02655029      -3.04711723
H       -1.50076389       0.02182388      -3.12299633
H       -1.34704673      -1.45924950      -4.06090307
C       -0.00230396      -1.05955124      -2.33316326
H        0.47488976      -2.04466248      -2.38369656
H       -0.16233528      -0.70023346      -1.26791167
C        1.04109478      -0.13029099      -2.99512339
H        0.92826688      -0.24257660      -4.05182743
H        0.72493958       0.90226364      -2.73402548
C        2.37927866      -0.49137878      -2.38558865
H        2.69203949      -1.53267288      -2.49182391
H        2.29923820      -0.18765259      -1.29402447
C        3.48022842       0.41309357      -2.94097614
H        3.35801077       0.42399979      -4.04444695
H        3.40022993       1.44683075      -2.49978161
C        4.84499979      -0.10891724      -2.50893211
H        5.01187849      -1.09857941      -3.02302051
H        5.60829353       0.58703613      -2.95536780
H        5.01154280      -0.24798203      -1.41046953
C       -3.55776834      -0.89503098       3.09216738
H       -3.35100365      -1.65891075       3.82618761
H       -3.65288258       0.10382843       3.59959269
O       -4.80086327      -1.14975739       2.43576193
H       -5.27079248      -1.74629593       3.02450705
C       -2.45633435      -0.74828339       2.03736734
H       -2.54423308      -1.60214043       1.34996557
H       -2.73604536       0.15389252       1.42587566
C       -1.07850647      -0.43467712       2.64703655
H       -0.85134780      -1.33875275       3.36419058
H       -1.13144565       0.41195297       3.40273142
C        0.01982558      -0.09353256       1.58784151
H       -0.29054576       0.79640579       1.03042841
H        0.01742905      -1.02411270       0.93043518
C        1.45344460       0.06393433       2.10510635
H        1.92796075      -0.78578186       2.68014145
H        2.12322664       0.17316818       1.27532244
C        1.65920174       1.35356903       2.91218710
H        2.59569025       1.26332474       3.59491777
H        0.93788028       1.47008896       3.68329954
C        1.72081435       2.65491867       2.21068430
H        2.44852972       2.71174240       1.41320610
H        0.66866267       2.70543671       1.85357714
C        1.96060145       3.72863770       3.20677710
H        2.90117359       3.57457352       3.65623999
H        2.05267954       4.71915436       2.67056322
H        1.10613859       3.83852768       3.93653059
