54
Properties=species:S:1:pos:R:3 pbc="F F F"
C        5.08092260      -2.59384346      -2.77901459
H        5.77614641      -2.71028709      -1.92523003
H        4.18920374      -3.16619873      -2.40180016
O        5.52258539      -3.14469337      -4.01086617
H        4.77577257      -3.31614113      -4.61684227
C        4.61384630      -1.16943550      -2.91956902
H        5.41015577      -0.61654854      -3.47692299
H        3.77164412      -1.07461357      -3.62884521
C        4.25976992      -0.43725014      -1.62386894
H        4.30541754       0.62294197      -1.91340446
H        5.09353495      -0.53036308      -0.89070892
C        2.97669840      -0.88777542      -0.93425369
H        3.00749254      -2.03515053      -0.77760696
H        2.26996660      -0.74285126      -1.85191917
C        2.49561167       0.07215500       0.18982315
H        2.49420977      -0.44651031       1.16041946
H        3.22470331       0.91080284       0.24224854
C        0.97815371       0.45812416       0.03188705
H        0.49744654       0.90539932       0.92383194
H        0.38577890      -0.42043495      -0.19466019
C        0.72594929       1.54889297      -0.94823074
H        1.42752886       1.43626213      -1.76293373
H       -0.34777403       1.50713539      -1.31578445
C        0.90952301       2.95313263      -0.26502991
H        1.91848993       3.09009552       0.29011154
H        0.87000656       3.70254707      -1.10298538
H        0.08249426       3.09676933       0.48395157
C       -2.42506146      -2.50887871       4.15708160
H       -3.32777905      -2.68083763       3.49634171
H       -1.61100197      -3.19888878       3.84062576
O       -2.63380075      -2.90543365       5.54801559
H       -3.26766372      -2.24344254       5.87938309
C       -2.03643918      -1.04939461       4.11993790
H       -2.75408888      -0.40265465       4.65485382
H       -1.14622164      -0.99083138       4.82159805
C       -1.63789034      -0.53833771       2.68368149
H       -1.12863493      -1.33934975       2.15860367
H       -1.05618525       0.40344620       2.69134140
C       -2.73644352      -0.19015694       1.75384903
H       -3.50856376       0.37487411       2.36557007
H       -3.23398256      -1.14002800       1.46735001
C       -2.35560942       0.65512276       0.63019180
H       -1.72323036       1.45194054       1.06727600
H       -1.82271028       0.06501389      -0.11022568
C       -3.55918932       1.32555199      -0.07194901
H       -4.12472868       2.14655304       0.45291519
H       -4.36683941       0.56062126      -0.35289383
C       -3.22385406       1.87106514      -1.48448181
H       -2.53064823       2.77991486      -1.28520584
H       -2.50264049       1.15931129      -1.95557404
C       -4.34750557       2.27710724      -2.43023300
H       -4.83963490       1.36655617      -2.87110329
H       -5.04838943       3.01081848      -1.94895744
H       -3.76663446       2.72848511      -3.26037025
