54
Properties=species:S:1:pos:R:3 pbc="F F F"
C        1.73405862      -2.95276737       4.33959961
H        2.78648281      -2.65128803       3.94883728
H        1.25355649      -1.97143745       4.67480469
O        1.86395407      -3.92738342       5.40597916
H        2.80888319      -4.18993568       5.53771973
C        0.95539880      -3.55926037       3.19981766
H        1.55373573      -4.45415974       2.88914490
H       -0.00190854      -4.01175594       3.56721878
C        0.60476232      -2.59593678       1.97792816
H        1.48171806      -1.83928013       1.97064972
H       -0.31063139      -1.95507145       2.09362411
C        0.46140170      -3.26531029       0.57407379
H       -0.41540670      -3.94018841       0.60414886
H        1.41424417      -3.84659481       0.47554398
C        0.13336062      -2.30524826      -0.58248901
H       -0.09948611      -2.95141888      -1.44697952
H       -0.72860837      -1.60932922      -0.38592148
C        1.34290981      -1.44167137      -0.93853760
H        2.22469425      -2.11177731      -0.86433029
H        1.27568460      -0.57183552      -0.24020767
C        1.42989945      -0.75570965      -2.27676392
H        1.36720324      -1.54210567      -3.07362938
H        0.49921060      -0.16373730      -2.40108109
C        2.65990639       0.18765545      -2.48727417
H        2.36602211       0.64910698      -3.42533875
H        2.73164845       0.89322853      -1.68199158
H        3.57531977      -0.48477554      -2.54895973
C       -3.65488315       2.36486149      -3.31962013
H       -4.07032728       1.35381222      -3.28520584
H       -3.83765697       2.99827194      -2.47612000
O       -4.44788265       3.04402924      -4.31897354
H       -4.62363529       2.41458130      -5.03985977
C       -2.14470887       2.41316032      -3.64004707
H       -1.90274656       1.78935909      -4.52934647
H       -1.87558317       3.46592045      -3.71395493
C       -1.37055159       1.78291988      -2.52691269
H       -0.36740172       1.48984718      -2.78716278
H       -1.94335592       0.85319805      -2.39624023
C       -1.26024342       2.65381622      -1.26085663
H       -2.27891445       2.92032146      -0.93368530
H       -0.60938048       3.53073788      -1.57313538
C       -0.41345990       1.92174816      -0.15354156
H       -1.05519581       1.14214993       0.18358231
H        0.43313313       1.39879417      -0.64155197
C       -0.00451660       2.83283329       1.05534744
H       -0.80156493       3.44128704       1.37182236
H        0.84548569       3.49641705       0.62174988
C        0.53660297       2.03808022       2.35681152
H        1.43549180       1.55910110       2.03714371
H        0.83030438       2.79313564       3.10534668
C       -0.40247893       1.11137104       3.10352325
H       -0.75626063       0.25224972       2.48537064
H        0.14756298       0.59290409       3.98168564
H       -1.37585521       1.71303368       3.38846970
