54
Properties=species:S:1:pos:R:3 pbc="F F F"
C       -2.18147659      -0.84883308       4.72842884
H       -1.51534843      -1.68666649       5.12323475
H       -1.50331306       0.00984955       4.76231670
O       -3.36944199      -0.75822830       5.52521992
H       -3.50522232       0.19189072       5.58934116
C       -2.55386734      -0.97335243       3.31487370
H       -3.13231087      -1.90461922       3.20059872
H       -3.30587196      -0.19241714       3.10796642
C       -1.47008324      -0.86314011       2.21923542
H       -1.93452644      -1.12932587       1.24021626
H       -0.66133118      -1.61434937       2.39574528
C       -0.79375839       0.45436478       2.06737041
H       -0.47803497       0.78719330       3.07133961
H       -1.45736504       1.24494934       1.61289692
C        0.47981834       0.41001129       1.09351063
H        1.11176682      -0.39695740       1.34285069
H        0.06153107       0.11603928       0.20053387
C        1.21659660       1.80371094       1.03344440
H        1.61560059       1.96504593       2.05133533
H        0.33873177       2.58843613       0.88707256
C        2.27864075       2.00158691       0.01713085
H        1.86590958       1.76069641      -1.00382710
H        2.64388275       3.05722046      -0.12269306
C        3.53443909       1.15032578       0.12633991
H        4.09525681       1.10570908      -0.82965088
H        4.28046799       1.50470734       0.90801716
H        3.38812637       0.10316849       0.34973812
C        1.80332947      -2.88390732       0.01420403
H        1.19196320      -2.79543304       0.92962360
H        1.55838013      -3.89600754      -0.31363106
O        3.18801880      -2.72356796       0.27262974
H        3.57592392      -3.61155891       0.13412762
C        1.51583481      -1.98414421      -1.16675949
H        1.68525696      -0.94210052      -0.78219223
H        2.26168060      -2.07667542      -1.94886398
C        0.09893417      -2.12220383      -1.71844578
H       -0.56786156      -1.60726357      -0.98981667
H       -0.11903381      -3.24466324      -1.80682945
C       -0.14123535      -1.40743637      -3.12985897
H       -1.07019043      -1.78441238      -3.64135647
H        0.66933823      -1.48992538      -3.77484035
C       -0.24760437       0.14676285      -2.91697788
H        0.59747124       0.40744400      -2.16752338
H        0.07824707       0.59803772      -3.91606808
C       -1.63513947       0.67362595      -2.69529629
H       -1.94087791       0.49835968      -1.65865707
H       -2.30784798       0.07378769      -3.29816628
C       -1.80435944       2.11015701      -3.11419678
H       -1.71885681       2.21759033      -4.23402309
H       -2.87040329       2.24838257      -2.86464214
C       -0.89089775       3.18969727      -2.44658279
H       -0.65852928       4.04805756      -3.11924553
H       -1.39901924       3.64303207      -1.53739643
H        0.09855843       2.82710648      -2.12175655
