54
Properties=species:S:1:pos:R:3 pbc="F F F"
C       -3.36924362       1.04212189       2.64859390
H       -4.13331223       0.37475967       2.16657257
H       -3.17547607       0.68947601       3.70989609
O       -4.06230354       2.35558891       2.66538239
H       -4.94257736       2.16395378       3.08100319
C       -2.02455521       1.22327232       1.99819946
H       -2.24554825       1.61616325       0.96485138
H       -1.52639961       2.08603859       2.52275848
C       -1.13979912       0.00132179       1.89638519
H       -1.01809692      -0.50085449       2.87355423
H       -0.10510635       0.32472420       1.53350449
C       -1.66313171      -1.06886292       0.81593704
H       -1.34978485      -0.65163040      -0.16937447
H       -2.75965309      -1.04777527       0.74401665
C       -1.12228775      -2.48908615       0.97419357
H        0.03123856      -2.41663551       0.95575142
H       -1.37003708      -2.84718704       1.97425842
C       -1.56453705      -3.43898010      -0.14580536
H       -1.78274727      -2.72630501      -1.04763603
H       -2.57536507      -3.83133125       0.00869560
C       -0.66897583      -4.60705185      -0.44868851
H        0.27371025      -4.10317802      -0.71752167
H       -0.52988815      -5.27030373       0.35880852
C       -1.08035660      -5.37766838      -1.68762970
H       -2.05326080      -5.07573509      -2.07852745
H       -0.33743668      -5.12946510      -2.56101608
H       -1.05018044      -6.40442467      -1.33785439
C        1.96678734       4.65513420       1.26842117
H        1.12442017       4.52840996       2.00381470
H        2.69149780       3.82863426       1.38671875
O        2.54602432       5.91601753       1.47479820
H        3.01321793       5.83436012       2.38064384
C        1.47101974       4.61435509      -0.27364922
H        0.73852158       5.48266411      -0.27656937
H        2.32435799       4.82081795      -0.99686050
C        0.79974365       3.28797722      -0.58691597
H        0.50624466       3.36679268      -1.66371918
H       -0.07790375       3.09341621       0.11212730
C        1.87762070       2.17546272      -0.62703514
H        2.11952400       1.95789146       0.45632744
H        2.86053848       2.54035759      -1.08917999
C        1.40015984       0.90940857      -1.38504219
H        0.48668098       0.46907806      -0.85337448
H        0.96429253       1.24645996      -2.32790184
C        2.47851181      -0.12183762      -1.43444824
H        3.05452347      -0.01373482      -0.48132324
H        3.19422913       0.09625435      -2.26285172
C        1.95235443      -1.59276772      -1.51523590
H        2.81641769      -2.24484825      -1.20170975
H        1.04800606      -1.68103409      -0.85679436
C        1.57549667      -1.94509125      -2.98439407
H        2.36089706      -1.75523186      -3.66652679
H        1.33782768      -3.02740479      -2.99132919
H        0.71417999      -1.33238029      -3.30634499
