54
Properties=species:S:1:pos:R:3 pbc="F F F"
C       -4.11993217       1.83914948       0.19460297
H       -3.28742981       2.54442024       0.55538559
H       -4.33948898       1.94133759      -0.88870049
O       -5.33091927       2.25887871       0.76220512
H       -5.21800995       3.22508812       1.04969406
C       -3.82447433       0.49383926       0.75577164
H       -3.80530739       0.59011459       1.86529160
H       -4.63022614      -0.22030258       0.44717026
C       -2.40331841       0.08395195       0.38185501
H       -2.18625069      -0.82099533       1.03732681
H       -1.68196869       0.83069229       0.66551781
C       -2.27577972      -0.24209976      -1.13767052
H       -2.67111778       0.61219406      -1.69982910
H       -2.85320282      -1.13335991      -1.47202492
C       -0.85200310      -0.53804016      -1.54605865
H       -0.14122772       0.21343613      -1.23362350
H       -0.27469063      -1.36436081      -0.94681549
C       -0.64595604      -0.76917267      -3.07146072
H        0.43835640      -0.79047775      -3.36112976
H       -1.31415939       0.00298119      -3.54003906
C       -1.18750000      -2.10556793      -3.67609024
H       -2.30708122      -2.08521271      -3.70038033
H       -0.89215088      -2.18872833      -4.74158096
C       -0.64742088      -3.28767204      -2.93241501
H        0.49345016      -3.36708260      -2.89625740
H       -1.04508400      -3.22558784      -1.88339615
H       -0.93127251      -4.29933739      -3.26493263
C        2.22525024      -2.87139130       3.75472832
H        1.60430908      -3.21273422       4.61793518
H        2.36212158      -3.66299057       3.05242538
O        3.53977203      -2.62804222       4.36427307
H        3.87520599      -3.46580124       4.76656914
C        1.68553543      -1.56821823       3.03875923
H        0.67103577      -1.70956802       2.73608208
H        1.67520142      -0.76054955       3.79549789
C        2.53698730      -1.08611679       1.88918114
H        2.17900848      -1.68865585       1.07865906
H        3.54628754      -1.30132866       2.04107285
C        2.42489624       0.41723061       1.68456841
H        2.78668976       1.11291885       2.48562622
H        1.32930374       0.62943459       1.69933128
C        2.96678925       0.84532928       0.31037903
H        4.05334473       0.53857613       0.22703743
H        2.51171875       0.24021912      -0.47123146
C        2.73431015       2.31467056      -0.09936905
H        3.36231232       2.53823090      -1.01521492
H        3.07625198       3.03549767       0.68803787
C        1.29326630       2.59008980      -0.57168961
H        1.16439819       1.96516609      -1.56038857
H        0.54244232       2.37298965       0.25108910
C        1.01177216       4.06031609      -0.99013138
H        0.28228378       3.95078468      -1.87583923
H        0.60145569       4.69910812      -0.12332344
H        1.89216995       4.44638252      -1.49636841
