54
Properties=species:S:1:pos:R:3 pbc="F F F"
C        4.03654337       1.88225937      -3.06081772
H        4.88672304       1.19321251      -2.94893837
H        3.52892637       1.86644554      -4.11790657
O        4.36374617       3.24112320      -2.73322678
H        3.52788973       3.62076759      -3.08358002
C        3.02162933       1.54629517      -1.97256851
H        3.49118948       1.89268875      -1.01934814
H        2.03600216       2.09044266      -2.20223236
C        2.69565964      -0.01164436      -1.88086700
H        3.58252573      -0.55458069      -1.49650383
H        2.44117832      -0.33765602      -2.85841560
C        1.54394722      -0.36284637      -0.91336632
H        0.55176210      -0.00841713      -1.41838074
H        1.66952372       0.04287720       0.09937668
C        1.28456211      -1.83125114      -0.79211426
H        1.00049925      -2.18491554      -1.78452110
H        2.18921566      -2.36333084      -0.49344635
C        0.21273851      -2.18754578       0.30025482
H       -0.82563782      -1.95944595      -0.05849457
H        0.40164900      -1.68164444       1.25110245
C        0.27347898      -3.70143890       0.73406410
H        1.40237856      -4.03469086       0.80286217
H       -0.21666002      -3.85910988       1.75483322
C       -0.35564613      -4.65634727      -0.25332069
H       -0.15152645      -5.60937309       0.07052040
H       -1.36030078      -4.54317474      -0.42113495
H        0.18642139      -4.63887024      -1.22512054
C       -1.06118870       2.82620811      -1.85956573
H       -1.02165484       1.77513313      -2.15891647
H       -2.16185927       3.11699295      -1.78646469
O       -0.49180794       3.68532181      -2.86680794
H       -1.06351399       3.49518013      -3.63391876
C       -0.46376181       3.08578110      -0.51339340
H        0.62750673       2.66714478      -0.52486992
H       -0.49729443       4.20159912      -0.33395195
C       -1.34838986       2.52572060       0.65809822
H       -2.37517881       3.05076599       0.67908859
H       -0.84895134       2.72634888       1.64615059
C       -1.73152208       1.08918762       0.38279152
H       -0.90714097       0.46104622       0.11742210
H       -2.40591431       1.06877899      -0.56303596
C       -2.59774423       0.39245987       1.46701050
H       -3.54050803       0.88778877       1.71170616
H       -2.92474413      -0.62744522       1.15226936
C       -1.67257452       0.23793793       2.76466751
H       -1.48155379       1.23350525       3.16725540
H       -0.82661271      -0.30236435       2.62300682
C       -2.31667995      -0.55117416       3.90724564
H       -1.54494643      -0.38265228       4.80028152
H       -3.26309395      -0.08432770       4.27691269
C       -2.35952997      -2.00573158       3.67010117
H       -1.39969063      -2.51223373       3.40340042
H       -2.68345070      -2.50482178       4.66394806
H       -3.05662513      -2.40594292       2.87083435
