54
Properties=species:S:1:pos:R:3 pbc="F F F"
C       -0.91734314       3.86453629      -0.46804237
H       -1.72029305       3.34633446      -1.00550652
H       -0.66057587       3.29665375       0.34465790
O       -1.28542900       5.20540619      -0.16163826
H       -2.20262146       5.16329575       0.13799286
C        0.30114174       3.85892105      -1.38185310
H       -0.03998947       4.38706207      -2.31325531
H        1.10864639       4.43841934      -0.92174339
C        0.83004951       2.47952080      -1.75164413
H        1.46471214       2.05348587      -0.92095566
H        1.53968239       2.61362648      -2.63442993
C       -0.30112076       1.47146416      -2.13919067
H       -1.01023674       1.93391991      -2.82103729
H       -0.87650681       1.12639236      -1.28162766
C        0.30966187       0.24652100      -2.78247833
H        0.88848877       0.54045486      -3.73749161
H        1.07947922      -0.18585205      -2.14810371
C       -0.75571632      -0.79610825      -3.18753624
H       -1.26798248      -0.34653473      -4.04348373
H       -1.41230774      -0.97545433      -2.33947182
C       -0.20851707      -2.19976807      -3.38488770
H        0.42638206      -2.34086800      -4.28872299
H        0.47555923      -2.33428955      -2.50791359
C       -1.19692421      -3.33197021      -3.27630806
H       -1.70053864      -3.19309807      -2.29091454
H       -1.87059784      -3.53983688      -4.12658119
H       -0.66278458      -4.28513908      -3.20050240
C        2.44735336       1.21945953       4.16414452
H        1.77931976       0.45135880       4.64405251
H        3.40498924       0.76041794       3.77971458
O        2.84777451       2.15770340       5.13245964
H        3.10874367       1.59712219       5.89122581
C        1.60391617       1.98121262       3.13877678
H        0.71968269       2.27264786       3.69536781
H        2.15121269       2.85604858       2.74690628
C        1.08980942       1.11822319       2.00260735
H        1.94975662       1.02798653       1.33532906
H        0.23841476       1.59841919       1.56782150
C        0.74159241      -0.37688828       2.39706993
H       -0.02584076      -0.26605225       3.24981117
H        1.74007797      -0.84650612       2.72452354
C        0.03620338      -1.27264404       1.31731033
H       -0.87998199      -0.71681595       0.92038155
H        0.79310417      -1.43464279       0.51522636
C       -0.36388397      -2.66986465       1.73772430
H       -1.07736969      -2.54856682       2.54334450
H        0.62346649      -3.08460808       2.05772972
C       -0.99462128      -3.65599060       0.63846397
H       -0.43967056      -3.41056061      -0.33889771
H       -0.66425896      -4.70632935       0.83923912
C       -2.51651573      -3.63856506       0.50485229
H       -2.86162949      -2.65506363       0.12017822
H       -2.88653374      -4.39946365      -0.20772362
H       -2.89911842      -3.85523987       1.51509285
