54
Properties=species:S:1:pos:R:3 pbc="F F F"
C        1.56805086      -2.44843674      -2.68991470
H        2.37188005      -2.95874405      -2.04787636
H        0.83161545      -3.21887016      -2.92914009
O        2.18326902      -2.07806015      -3.90954781
H        2.28544664      -2.98873138      -4.33631706
C        0.91932249      -1.20107651      -2.06108093
H        1.74831295      -0.54993057      -1.59672070
H        0.37533808      -0.65305519      -2.84687901
C       -0.08957100      -1.65389252      -1.03446579
H       -0.73540878      -2.36677933      -1.47322655
H       -0.79799604      -0.88501358      -0.76045990
C        0.44228935      -2.30325127       0.33278084
H        1.45506191      -1.86069107       0.42061806
H        0.69217062      -3.29858017       0.09471703
C       -0.56848288      -2.19732857       1.45072460
H       -0.36492634      -1.21727753       1.97790623
H       -1.58534932      -2.23111916       0.98938084
C       -0.45325422      -3.32712936       2.49715996
H        0.40016603      -3.18001747       3.19775581
H       -0.30818272      -4.29801941       1.96320343
C       -1.73470283      -3.52400208       3.41000366
H       -1.76820183      -2.56227303       4.02675438
H       -2.69492388      -3.65698433       2.78085899
C       -1.62961125      -4.77828217       4.23085403
H       -0.84328914      -4.77510452       4.97552681
H       -2.64011049      -5.14078522       4.68271446
H       -1.35107589      -5.61502266       3.51443672
C        2.77346849       2.93391609       1.63305283
H        2.82575369       2.48388290       2.58660126
H        2.75473976       2.15487671       0.88410568
O        3.98142242       3.59043121       1.35832787
H        4.07976723       3.56149673       0.38902283
C        1.61122465       3.87553596       1.40008450
H        1.86624384       4.66510963       2.07988167
H        1.54598141       4.30751228       0.31873512
C        0.18634534       3.31630325       1.67311096
H       -0.51849842       4.16490936       1.73315430
H        0.18055058       2.85545540       2.64790916
C       -0.35491753       2.32183456       0.62723541
H       -1.22640872       1.85556984       1.09344482
H        0.23112917       1.44654083       0.43549252
C       -0.80002475       2.89287567      -0.74823189
H       -1.44744205       3.85474586      -0.60984135
H        0.14837503       3.09045219      -1.25810242
C       -1.60252833       1.88635063      -1.66219997
H       -2.53894329       1.66125107      -0.99352837
H       -1.07823491       0.95037651      -1.84190559
C       -2.04273295       2.51975250      -3.01293278
H       -2.88088489       1.92634583      -3.33652782
H       -2.29853964       3.54774094      -2.84001732
C       -0.95960498       2.32483292      -4.13606167
H       -0.54898834       1.23438263      -4.19741535
H       -1.45631003       2.55378723      -5.11139107
H       -0.13874626       2.99223709      -3.97180367
