54
Properties=species:S:1:pos:R:3 pbc="F F F"
C       -1.28929710      -0.30128294      -3.94097042
H       -1.61728096      -1.35330319      -3.73443699
H       -2.10174561       0.38263476      -3.58338857
O       -1.41027260      -0.19154191      -5.33413458
H       -1.73582840       0.68887019      -5.52445936
C        0.08264542       0.09738439      -3.53411674
H        0.92971611      -0.49140859      -3.97668552
H        0.20544052       1.11135614      -4.02245903
C        0.34748840       0.11831784      -2.02498579
H        0.14816475      -0.92965680      -1.64458156
H       -0.35354614       0.79228961      -1.53588617
C        1.79929924       0.39697188      -1.65180087
H        1.98891449       1.51306486      -1.85308838
H        2.43186378      -0.13734025      -2.40419793
C        2.30171204       0.12166810      -0.22401071
H        1.59873581       0.59415603       0.49968815
H        2.32233238      -0.92142981       0.04313707
C        3.63624001       0.77077150      -0.00610256
H        3.41985130       1.83818793      -0.16358662
H        4.43172836       0.42891145      -0.63118029
C        4.06165695       0.59375405       1.40092945
H        3.39308548       1.20063078       1.96257162
H        3.98245621      -0.51874131       1.60911465
C        5.52206993       1.06496096       1.66743803
H        5.80538940       1.93148899       1.03429747
H        5.62204552       1.47154427       2.70777607
H        6.12674904       0.15479058       1.64379787
C       -4.18227577      -1.20725250      -1.79044926
H       -5.12467384      -1.21814585      -1.19369209
H       -3.88706589      -0.25374031      -2.17868710
O       -4.25054550      -1.89594841      -2.99016929
H       -4.12282658      -2.81911945      -2.85077953
C       -3.07762909      -1.83856821      -0.92157340
H       -3.57210922      -2.83327675      -0.63180852
H       -2.17501640      -2.02305412      -1.43971825
C       -2.65179443      -0.92074728       0.26016259
H       -3.59764385      -0.65199947       0.72670770
H       -2.27441597      -0.05273438      -0.27829099
C       -1.73781967      -1.56290388       1.29397154
H       -0.76919556      -1.72460413       0.71504211
H       -2.14008904      -2.60370111       1.45832825
C       -1.40291214      -0.77771521       2.53491783
H       -2.21080399      -0.85962629       3.31199884
H       -0.37431717      -1.08646965       2.99270439
C       -1.24098587       0.74448013       2.37555313
H       -2.22846985       1.15458393       2.10157490
H       -0.61915016       1.07110405       1.55137634
C       -0.85598373       1.40966082       3.72312307
H       -1.35517502       2.42461348       3.76576662
H       -1.32961845       0.84665442       4.56430435
C        0.60771561       1.53355265       3.97046137
H        1.02797508       2.29541206       3.32328320
H        0.79973030       1.80761480       5.02557325
H        1.09567261       0.61488295       3.80162954
