54
Properties=species:S:1:pos:R:3 pbc="F F F"
C       -6.32281780      -1.23192406      -0.41538620
H       -6.80088425      -0.86768150      -1.25181961
H       -5.76553440      -2.15183449      -0.73559320
O       -7.32340908      -1.71372223       0.49987721
H       -7.62622261      -0.99237251       1.01936984
C       -5.29524899      -0.26201057       0.36669207
H       -5.77081013       0.57609367       0.77205777
H       -4.80459595      -0.80901337       1.24863124
C       -4.13676786       0.21308327      -0.44699144
H       -4.36653328       1.11752892      -0.96925545
H       -3.86865425      -0.54354858      -1.15915668
C       -2.82683921       0.58341789       0.39657307
H       -2.30544806      -0.32205391       0.72946382
H       -3.19606566       1.09064293       1.28567648
C       -1.83404613       1.49178886      -0.43383908
H       -1.48070216       1.11405373      -1.44877791
H       -2.36454582       2.42970848      -0.74993730
C       -0.59501123       1.66071510       0.35219359
H        0.23135281       1.70782280      -0.36522961
H       -0.23888516       0.83548164       1.05234694
C       -0.44126248       3.00786400       1.11603451
H       -0.25650859       3.80597878       0.38259006
H       -1.35002875       3.26728630       1.67314076
C        0.67252135       3.01934242       2.12544656
H        1.71649909       3.24456215       1.72470498
H        0.38882613       3.95113182       2.78598571
H        0.69373727       2.09773445       2.74797511
C       -0.60851932      -2.40019798      -1.85504794
H       -1.12066817      -1.47221184      -2.14153409
H       -0.57133555      -3.03534126      -2.71334434
O       -1.40481544      -3.01434517      -0.88287854
H       -2.29727340      -3.03374100      -1.29704118
C        0.75221181      -2.20698738      -1.25637138
H        0.59767222      -1.82931709      -0.23219395
H        1.26923156      -3.19173813      -1.27401960
C        1.51016879      -1.10953712      -2.08129978
H        0.85595632      -0.17211342      -1.94355476
H        1.55080771      -1.27102470      -3.19127369
C        2.93752265      -0.99866867      -1.66955709
H        3.53889060      -0.33414078      -2.32517409
H        3.50439048      -2.04151917      -1.67011631
C        3.20984674      -0.45165825      -0.21639895
H        2.73791146       0.61161995      -0.26845312
H        2.74945998      -1.13686562       0.49338579
C        4.70134735      -0.34107780       0.07559180
H        5.15177727       0.30916977      -0.70994854
H        5.17690086      -1.37705421       0.17133808
C        4.98896313       0.22460365       1.44263053
H        4.50631523       1.14003944       1.62066483
H        4.56658268      -0.41911507       2.30405784
C        6.49860668       0.31357384       1.78606391
H        6.76883698      -0.78682518       1.85706353
H        7.09576416       0.79792213       0.99208546
H        6.60132790       0.90678978       2.68257499
