54
Properties=species:S:1:pos:R:3 pbc="F F F"
C        2.34969521      -2.84629440      -1.35429192
H        2.60838127      -1.76424980      -1.30887985
H        3.21133995      -3.52305794      -1.30629349
O        1.62200356      -3.14887047      -2.51462936
H        1.75292397      -4.16961098      -2.67977142
C        1.63707542      -3.15423012      -0.14263535
H        0.80535698      -2.35928535      -0.09707642
H        1.17773819      -4.11591339      -0.29840469
C        2.41358757      -3.33890533       1.20637512
H        2.93215370      -4.26831055       1.15829849
H        1.63075447      -3.43693161       2.05273438
C        3.27315331      -2.08454132       1.54129028
H        4.14663506      -2.04259109       0.82495880
H        3.64891624      -2.17205620       2.56824493
C        2.56935310      -0.78483009       1.48357391
H        2.21188164      -0.56299400       0.42354202
H        1.57278633      -0.76667595       2.05295181
C        3.45712852       0.36585808       1.92342377
H        4.35168648       0.42719460       1.25106812
H        3.82291985       0.12602425       3.02074432
C        2.56407356       1.59274101       2.14454651
H        1.85310555       1.59162521       1.26405334
H        2.00423241       1.49853706       3.06457520
C        3.26353264       2.96961212       2.14365005
H        2.51349831       3.80920029       2.08487320
H        3.88112068       3.20278740       3.02245712
H        4.03854942       2.92083740       1.31716156
C       -4.40693665      -1.31720924       1.67491531
H       -3.68774605      -1.49139214       2.45332718
H       -5.10086632      -0.38092422       1.82679367
O       -5.24661446      -2.45399094       1.65989685
H       -5.85358429      -2.21225357       2.40422440
C       -3.57648277      -1.19328308       0.41020203
H       -2.81881142      -1.96173477       0.35696411
H       -4.21552086      -1.36237335      -0.51677322
C       -2.98064041       0.21807671       0.35726547
H       -2.35308456       0.32119560       1.24938965
H       -3.81426430       0.97638893       0.49636459
C       -2.17400360       0.52454948      -0.93210793
H       -2.84858131       0.55598068      -1.83959770
H       -1.51788139      -0.34767151      -1.10869789
C       -1.39263916       1.88891983      -0.97505569
H       -2.07235527       2.63668060      -0.70367622
H       -0.53804207       1.78974152      -0.29756165
C       -0.80630493       2.06904221      -2.44274521
H       -0.30579567       1.13772964      -2.74633217
H       -0.09438133       2.85958290      -2.49203873
C       -1.81167603       2.53365326      -3.47069931
H       -1.34769440       2.57087326      -4.50765419
H       -2.69839287       1.90309334      -3.43234444
C       -2.33020210       3.91994858      -3.12556648
H       -2.89175987       3.86147499      -2.17851639
H       -1.40398788       4.54965973      -3.07911301
H       -3.02539062       4.43929291      -3.88740921
