
     RDKit          3D

  5  4  0  0  0  0  0  0  0  0999 V2000
   -0.0540    0.0049   -0.0049 C   0  0  0  0  0  0  0  0  0  0  0  0
    1.3164   -0.1185    0.1190 F   0  0  0  0  0  0  0  0  0  0  0  0
   -0.5141    0.0481    1.0037 H   0  0  0  0  0  0  0  0  0  0  0  0
   -0.4556   -0.8694   -0.5574 H   0  0  0  0  0  0  0  0  0  0  0  0
   -0.2928    0.9350   -0.5604 H   0  0  0  0  0  0  0  0  0  0  0  0
  1  2  1  0
  1  3  1  0
  1  4  1  0
  1  5  1  0
M  END
$$$$
