
     RDKit          3D

  3  2  0  0  0  0  0  0  0  0999 V2000
   -1.2369    0.5835    0.0000 O   0  0  0  0  0  0  0  0  0  0  0  0
   -0.0000    0.5459    0.0000 C   0  0  0  0  0  0  0  0  0  0  0  0
    1.2369    0.5083    0.0000 O   0  0  0  0  0  0  0  0  0  0  0  0
  1  2  2  0
  2  3  2  0
M  END
$$$$
