
     RDKit          3D

  5  4  0  0  0  0  0  0  0  0999 V2000
   -1.1204   -0.7365   -0.1208 F   0  0  0  0  0  0  0  0  0  0  0  0
   -0.0005    0.0627    0.0044 C   0  0  0  0  0  0  0  0  0  0  0  0
    1.1314   -0.7293    0.0170 F   0  0  0  0  0  0  0  0  0  0  0  0
   -0.0603    0.6373    0.9515 H   0  0  0  0  0  0  0  0  0  0  0  0
    0.0497    0.7658   -0.8522 H   0  0  0  0  0  0  0  0  0  0  0  0
  1  2  1  0
  2  3  1  0
  2  4  1  0
  2  5  1  0
M  END
$$$$
