
     RDKit          3D

  5  4  0  0  0  0  0  0  0  0999 V2000
   -0.0000    0.0000    0.0000 N   0  0  0  0  0  4  0  0  0  0  0  0
   -0.7324   -0.7356   -0.1151 H   0  0  0  0  0  0  0  0  0  0  0  0
   -0.3427    0.8990   -0.4064 H   0  0  0  0  0  0  0  0  0  0  0  0
    0.2038    0.1324    1.0157 H   0  0  0  0  0  0  0  0  0  0  0  0
    0.8712   -0.2958   -0.4942 H   0  0  0  0  0  0  0  0  0  0  0  0
  1  2  1  0
  1  3  1  0
  1  4  1  0
  1  5  1  0
M  CHG  1   1   1
M  END
$$$$
