5

F      -0.844300000000000     -0.501900000000000     -0.971500000000000
C      -0.000000000000000     -0.000000000000000      0.000000000000000
F      -0.343600000000000      1.309100000000000      0.277100000000000
F      -0.116100000000000     -0.759500000000000      1.148100000000000
F       1.304000000000000     -0.047600000000000     -0.453700000000000
