
     RDKit          3D

  4  3  0  0  0  0  0  0  0  0999 V2000
    1.2662   -0.4192    0.0245 O   0  0  0  0  0  1  0  0  0  0  0  0
   -0.0382    0.0545   -0.0018 C   0  0  0  0  0  0  0  0  0  0  0  0
   -1.0016   -0.7544    0.0078 O   0  0  0  0  0  0  0  0  0  0  0  0
   -0.2264    1.1191   -0.0305 H   0  0  0  0  0  0  0  0  0  0  0  0
  1  2  1  0
  2  3  2  0
  2  4  1  0
M  CHG  1   1  -1
M  END
$$$$
