
     RDKit          3D

  4  3  0  0  0  0  0  0  0  0999 V2000
    0.0125   -0.0017    0.2947 N   0  0  0  0  0  0  0  0  0  0  0  0
    0.9525   -0.1384   -0.1397 H   0  0  0  0  0  0  0  0  0  0  0  0
   -0.6029   -0.7592   -0.0771 H   0  0  0  0  0  0  0  0  0  0  0  0
   -0.3621    0.8993   -0.0779 H   0  0  0  0  0  0  0  0  0  0  0  0
  1  2  1  0
  1  3  1  0
  1  4  1  0
M  END
$$$$
