
     RDKit          3D

  5  4  0  0  0  0  0  0  0  0999 V2000
    0.0000   -0.0000   -0.0000 N   0  0  0  0  0  4  0  0  0  0  0  0
    0.4794   -0.0616    1.2612 F   0  0  0  0  0  0  0  0  0  0  0  0
   -0.8608   -1.0204   -0.2048 F   0  0  0  0  0  0  0  0  0  0  0  0
   -0.6425    1.1742   -0.1805 F   0  0  0  0  0  0  0  0  0  0  0  0
    1.0240   -0.0922   -0.8758 F   0  0  0  0  0  0  0  0  0  0  0  0
  1  2  1  0
  1  3  1  0
  1  4  1  0
  1  5  1  0
M  CHG  1   1   1
M  END
$$$$
