
     RDKit          3D

  6  5  0  0  0  0  0  0  0  0999 V2000
   -0.3557   -0.0271    0.0346 C   0  0  0  0  0  0  0  0  0  0  0  0
    0.9451    0.1778    0.5054 O   0  0  0  0  0  0  0  0  0  0  0  0
   -1.0669    0.0566    0.8820 H   0  0  0  0  0  0  0  0  0  0  0  0
   -0.6138    0.7412   -0.7262 H   0  0  0  0  0  0  0  0  0  0  0  0
   -0.4472   -1.0418   -0.4103 H   0  0  0  0  0  0  0  0  0  0  0  0
    1.5385    0.0931   -0.2855 H   0  0  0  0  0  0  0  0  0  0  0  0
  1  2  1  0
  1  3  1  0
  1  4  1  0
  1  5  1  0
  2  6  1  0
M  END
$$$$
