5

C      -0.000000599648789     -0.000004871253454     -0.000001919393802
H       0.823534422629551     -0.578183996961082     -0.398404921654823
H       0.339295532423233      0.568726056329765      0.855944675824915
H      -0.366705205679674      0.677004531258115     -0.760534054896808
H      -0.796124149724321     -0.667541719373344      0.302996220120517
