5

C      -0.054000000000000      0.004900000000000     -0.004900000000000
F       1.316400000000000     -0.118500000000000      0.119000000000000
H      -0.514100000000000      0.048100000000000      1.003700000000000
H      -0.455600000000000     -0.869400000000000     -0.557400000000000
H      -0.292800000000000      0.935000000000000     -0.560400000000000
