5

F      -1.120400000000000     -0.736500000000000     -0.120800000000000
C      -0.000500000000000      0.062700000000000      0.004400000000000
F       1.131400000000000     -0.729300000000000      0.017000000000000
H      -0.060300000000000      0.637300000000000      0.951500000000000
H       0.049700000000000      0.765800000000000     -0.852200000000000
