
     RDKit          3D

  4  3  0  0  0  0  0  0  0  0999 V2000
    0.5664    0.2982    0.3424 O   0  0  0  0  0  0  0  0  0  0  0  0
   -0.5704    0.3124   -0.3225 O   0  0  0  0  0  0  0  0  0  0  0  0
    1.1619   -0.2919   -0.1868 H   0  0  0  0  0  0  0  0  0  0  0  0
   -1.1579   -0.3187    0.1669 H   0  0  0  0  0  0  0  0  0  0  0  0
  1  2  1  0
  1  3  1  0
  2  4  1  0
M  END
$$$$
