
     RDKit          3D

  5  4  0  0  0  0  0  0  0  0999 V2000
    1.2334   -0.3708   -0.4501 F   0  0  0  0  0  0  0  0  0  0  0  0
    0.0032    0.0044    0.0542 C   0  0  0  0  0  0  0  0  0  0  0  0
   -0.9400   -0.9498   -0.2752 F   0  0  0  0  0  0  0  0  0  0  0  0
   -0.3645    1.2213   -0.4868 F   0  0  0  0  0  0  0  0  0  0  0  0
    0.0679    0.0948    1.1580 H   0  0  0  0  0  0  0  0  0  0  0  0
  1  2  1  0
  2  3  1  0
  2  4  1  0
  2  5  1  0
M  END
$$$$
