
     RDKit          3D

  8  7  0  0  0  0  0  0  0  0999 V2000
   -0.7621    0.0987   -0.0681 C   0  0  0  0  0  0  0  0  0  0  0  0
    0.7322   -0.1537    0.0463 C   0  0  0  0  0  0  0  0  0  0  0  0
    1.3667    0.9880    0.5000 F   0  0  0  0  0  0  0  0  0  0  0  0
   -1.1764    0.3726    0.9252 H   0  0  0  0  0  0  0  0  0  0  0  0
   -1.2710   -0.8185   -0.4324 H   0  0  0  0  0  0  0  0  0  0  0  0
   -0.9520    0.9267   -0.7833 H   0  0  0  0  0  0  0  0  0  0  0  0
    1.1435   -0.4301   -0.9474 H   0  0  0  0  0  0  0  0  0  0  0  0
    0.9192   -0.9838    0.7597 H   0  0  0  0  0  0  0  0  0  0  0  0
  1  2  1  0
  2  3  1  0
  1  4  1  0
  1  5  1  0
  1  6  1  0
  2  7  1  0
  2  8  1  0
M  END
$$$$
