9

C       0.976424865439278     -0.344782580966694      0.114850774186514
C      -0.347926883144959      0.355729907398745     -0.117543822627919
F      -0.608974198287613      1.209458601104607      0.948445828526884
O      -1.358110050348423     -0.568980229918343     -0.205961661950860
H       0.910689229995760     -0.934508934326019      1.024953613489965
H       1.770102089355148      0.389596623610914      0.212110029848461
H       1.180208439572493     -1.002026662872955     -0.724177852417202
H      -0.308162768618716      1.021869666705782     -0.999406139428508
H      -2.214350723962983     -0.126356390736037     -0.253170769627337
