5

F       1.176493314462121     -0.355605628222874     -0.448819337639602
C       0.003410228232375      0.004742318242344      0.058161574470693
F      -0.898585387393884     -0.908386415615984     -0.281845168186296
F      -0.349135788289812      1.164461867315697     -0.483840475654764
H       0.067817632989199      0.094687858280817      1.156443407009968
