
     RDKit          3D

  9  8  0  0  0  0  0  0  0  0999 V2000
    0.9723   -0.3378    0.1167 C   0  0  0  0  0  0  0  0  0  0  0  0
   -0.3630    0.3654   -0.0768 C   0  0  2  0  0  0  0  0  0  0  0  0
   -0.6003    1.2058    0.9981 F   0  0  0  0  0  0  0  0  0  0  0  0
   -1.3855   -0.5870   -0.1662 O   0  0  0  0  0  0  0  0  0  0  0  0
    0.9550   -0.9399    1.0500 H   0  0  0  0  0  0  0  0  0  0  0  0
    1.7868    0.4137    0.1868 H   0  0  0  0  0  0  0  0  0  0  0  0
    1.1762   -1.0084   -0.7449 H   0  0  0  0  0  0  0  0  0  0  0  0
   -0.3232    0.9689   -1.0111 H   0  0  0  0  0  0  0  0  0  0  0  0
   -2.2184   -0.0807   -0.3525 H   0  0  0  0  0  0  0  0  0  0  0  0
  1  2  1  0
  2  3  1  0
  2  4  1  0
  1  5  1  0
  1  6  1  0
  1  7  1  0
  2  8  1  6
  4  9  1  0
M  END
$$$$
