6

C       0.653566198802314      0.023957837455073      0.074047560203783
C      -0.653566172508394     -0.023957836493944     -0.074047557220138
H       1.134215756944904      0.788737883811784      0.661961219759695
H       1.307400486330166     -0.699257358174459     -0.385312873704351
H      -1.307400492173049      0.699257294940945      0.385312828046066
H      -1.134215777395940     -0.788737821539401     -0.661961177085054
