
     RDKit          3D

  5  4  0  0  0  0  0  0  0  0999 V2000
   -0.8764   -0.4606   -0.9635 F   0  0  0  0  0  0  0  0  0  0  0  0
   -0.0000   -0.0000    0.0000 C   0  0  0  0  0  0  0  0  0  0  0  0
   -0.3079    1.3096    0.3143 F   0  0  0  0  0  0  0  0  0  0  0  0
   -0.1080   -0.7831    1.1330 F   0  0  0  0  0  0  0  0  0  0  0  0
    1.2924   -0.0658   -0.4838 F   0  0  0  0  0  0  0  0  0  0  0  0
  1  2  1  0
  2  3  1  0
  2  4  1  0
  2  5  1  0
M  END
$$$$
