7

C      -0.661700000000000      0.020300000000000      0.085300000000000
C       0.813600000000000     -0.064600000000000     -0.114200000000000
O       1.412200000000000     -1.158600000000000      0.057100000000000
O       1.539100000000000      1.075000000000000     -0.436700000000000
H      -1.149600000000000     -0.909100000000000     -0.276900000000000
H      -0.882000000000000      0.153200000000000      1.164900000000000
H      -1.071700000000000      0.883700000000000     -0.479400000000000
