
     RDKit          3D

  3  2  0  0  0  0  0  0  0  0999 V2000
    1.1655   -0.1853    0.0000 O   0  0  0  0  0  1  0  0  0  0  0  0
   -0.0611    0.4341    0.0000 N   0  0  0  0  0  0  0  0  0  0  0  0
   -1.1044   -0.2488    0.0000 O   0  0  0  0  0  0  0  0  0  0  0  0
  1  2  1  0
  2  3  2  0
M  CHG  1   1  -1
M  END
$$$$
