30

C       2.311000000000000     -0.078700000000000     -0.280700000000000
O       2.569200000000000      0.579500000000000     -1.318200000000000
S       0.702000000000000     -0.921400000000000     -0.111600000000000
C      -0.756300000000000      0.173100000000000     -0.600300000000000
N       3.368500000000000     -0.326800000000000      0.689100000000000
C      -2.092800000000000     -0.397200000000000      0.132500000000000
C      -0.532300000000000      1.789100000000000     -0.386100000000000
O      -2.206000000000000      0.025400000000000      1.488100000000000
S      -1.091000000000000     -0.131000000000000     -2.428300000000000
C      -2.584600000000000     -1.947900000000000     -0.052100000000000
C      -3.166100000000000     -2.231400000000000     -1.487800000000000
C       4.721900000000000      0.260800000000000      0.547600000000000
S       0.821000000000000     -0.433900000000000     -3.332400000000000
C      -1.752600000000000      2.713100000000000     -0.862000000000000
F      -3.117200000000000      0.298400000000000     -0.479500000000000
C       3.152500000000000     -1.342100000000000      1.735800000000000
C      -3.762100000000000     -2.187000000000000      0.945100000000000
F      -2.280600000000000      2.312700000000000     -2.088800000000000
C       5.403400000000000     -0.192600000000000     -0.749900000000000
N       4.685200000000000      1.720800000000000      0.635700000000000
C      -0.245500000000000      2.266900000000000      1.091300000000000
O       0.590600000000000      2.177100000000000     -1.142500000000000
F       0.739900000000000     -2.139500000000000     -3.136800000000000
C      -4.457400000000000     -1.601400000000000     -1.980900000000000
O      -2.789600000000000      2.695000000000000      0.096100000000000
C       1.098600000000000      1.916100000000000      1.709400000000000
S      -1.075300000000000     -0.730100000000000      2.558700000000000
O      -1.312400000000000      4.049600000000000     -0.985900000000000
S      -2.510200000000000     -3.125300000000000     -2.428000000000000
C      -1.539700000000000     -3.058800000000000      0.321100000000000
