5

N       0.000000000000000     -0.000000000000000     -0.000000000000000
F       0.479400000000000     -0.061600000000000      1.261200000000000
F      -0.860800000000000     -1.020400000000000     -0.204800000000000
F      -0.642500000000000      1.174200000000000     -0.180500000000000
F       1.024000000000000     -0.092200000000000     -0.875800000000000
