8

C      -0.248800000000000      0.374100000000000      0.096500000000000
F      -0.049400000000000      1.449400000000000     -0.752400000000000
N       0.896300000000000     -0.528100000000000      0.029500000000000
O      -1.413100000000000     -0.303200000000000     -0.288100000000000
H      -0.359900000000000      0.760300000000000      1.135000000000000
H       1.745700000000000      0.009500000000000      0.317800000000000
H       1.036000000000000     -0.803000000000000     -0.970000000000000
H      -1.606800000000000     -0.959000000000000      0.431600000000000
