
     RDKit          3D

 11 10  0  0  0  0  0  0  0  0999 V2000
    1.1547    0.1577   -0.2408 C   0  0  0  0  0  0  0  0  0  0  0  0
   -0.3206   -0.2472   -0.2624 C   0  0  2  0  0  0  0  0  0  0  0  0
   -1.1235    0.6486    0.5720 N   0  0  0  0  0  0  0  0  0  0  0  0
   -0.4454   -1.5643    0.2023 O   0  0  0  0  0  0  0  0  0  0  0  0
    1.5578    0.1011    0.7929 H   0  0  0  0  0  0  0  0  0  0  0  0
    1.2736    1.1946   -0.6207 H   0  0  0  0  0  0  0  0  0  0  0  0
    1.7415   -0.5255   -0.8908 H   0  0  0  0  0  0  0  0  0  0  0  0
   -0.6836   -0.1880   -1.3145 H   0  0  0  0  0  0  0  0  0  0  0  0
   -1.0331    1.6236    0.2037 H   0  0  0  0  0  0  0  0  0  0  0  0
   -0.7423    0.6419    1.5464 H   0  0  0  0  0  0  0  0  0  0  0  0
   -1.3791   -1.8428    0.0119 H   0  0  0  0  0  0  0  0  0  0  0  0
  1  2  1  0
  2  3  1  0
  2  4  1  0
  1  5  1  0
  1  6  1  0
  1  7  1  0
  2  8  1  6
  3  9  1  0
  3 10  1  0
  4 11  1  0
M  END
$$$$
