5

C      -0.053700000000000      0.004800000000000     -0.007600000000000
F       1.308900000000000     -0.116400000000000      0.185600000000000
H      -0.574700000000000     -0.082700000000000      0.967900000000000
H      -0.403700000000000     -0.799100000000000     -0.687300000000000
H      -0.276700000000000      0.993500000000000     -0.458600000000000
