
     RDKit          3D

  6  5  0  0  0  0  0  0  0  0999 V2000
    0.0207   -0.3555   -0.0405 C   0  0  0  0  0  0  0  0  0  0  0  0
   -0.5836    0.8971   -0.1865 O   0  0  0  0  0  0  0  0  0  0  0  0
   -0.6264   -1.1281   -0.5043 H   0  0  0  0  0  0  0  0  0  0  0  0
    1.0098   -0.3657   -0.5478 H   0  0  0  0  0  0  0  0  0  0  0  0
    0.1490   -0.5963    1.0372 H   0  0  0  0  0  0  0  0  0  0  0  0
    0.0304    1.5485    0.2418 H   0  0  0  0  0  0  0  0  0  0  0  0
  1  2  1  0
  1  3  1  0
  1  4  1  0
  1  5  1  0
  2  6  1  0
M  END
$$$$
