
     RDKit          3D

  4  3  0  0  0  0  0  0  0  0999 V2000
    0.0041    0.0125    0.3026 O   0  0  0  0  0  3  0  0  0  0  0  0
   -0.3863    0.8135   -0.1293 H   0  0  0  0  0  0  0  0  0  0  0  0
   -0.5174   -0.7457   -0.0632 H   0  0  0  0  0  0  0  0  0  0  0  0
    0.8995   -0.0803   -0.1100 H   0  0  0  0  0  0  0  0  0  0  0  0
  1  2  1  0
  1  3  1  0
  1  4  1  0
M  CHG  1   1   1
M  END
$$$$
