
     RDKit          3D

  9  8  0  0  0  0  0  0  0  0999 V2000
   -0.9246   -0.0683    0.0580 C   0  0  0  0  0  0  0  0  0  0  0  0
    0.5078    0.3703   -0.2207 C   0  0  0  0  0  0  0  0  0  0  0  0
    1.3602   -0.7416   -0.2558 O   0  0  0  0  0  0  0  0  0  0  0  0
   -1.5945    0.8172    0.0544 H   0  0  0  0  0  0  0  0  0  0  0  0
   -0.9864   -0.5613    1.0513 H   0  0  0  0  0  0  0  0  0  0  0  0
   -1.2633   -0.7798   -0.7248 H   0  0  0  0  0  0  0  0  0  0  0  0
    0.8417    1.0948    0.5564 H   0  0  0  0  0  0  0  0  0  0  0  0
    0.5459    0.8808   -1.2061 H   0  0  0  0  0  0  0  0  0  0  0  0
    1.5132   -1.0120    0.6873 H   0  0  0  0  0  0  0  0  0  0  0  0
  1  2  1  0
  2  3  1  0
  1  4  1  0
  1  5  1  0
  1  6  1  0
  2  7  1  0
  2  8  1  0
  3  9  1  0
M  END
$$$$
