
     RDKit          3D

  4  3  0  0  0  0  0  0  0  0999 V2000
   -0.9737   -0.6174    0.4512 O   0  0  0  0  0  0  0  0  0  0  0  0
   -0.0382    0.0395    0.0265 C   0  0  0  0  0  0  0  0  0  0  0  0
    1.2356   -0.3850    0.2268 F   0  0  0  0  0  0  0  0  0  0  0  0
   -0.2238    0.9628   -0.5111 H   0  0  0  0  0  0  0  0  0  0  0  0
  1  2  2  0
  2  3  1  0
  2  4  1  0
M  END
$$$$
