
     RDKit          3D

  8  7  0  0  0  0  0  0  0  0999 V2000
   -0.7714    0.0085    0.0046 C   0  0  0  0  0  0  0  0  0  0  0  0
    0.7462   -0.0656   -0.0268 C   0  0  0  0  0  0  0  0  0  0  0  0
    1.2828    1.1220    0.4356 F   0  0  0  0  0  0  0  0  0  0  0  0
   -1.1228    0.8403   -0.6418 H   0  0  0  0  0  0  0  0  0  0  0  0
   -1.1200    0.1824    1.0445 H   0  0  0  0  0  0  0  0  0  0  0  0
   -1.2016   -0.9455   -0.3669 H   0  0  0  0  0  0  0  0  0  0  0  0
    1.0949   -0.8997    0.6179 H   0  0  0  0  0  0  0  0  0  0  0  0
    1.0921   -0.2424   -1.0670 H   0  0  0  0  0  0  0  0  0  0  0  0
  1  2  1  0
  2  3  1  0
  1  4  1  0
  1  5  1  0
  1  6  1  0
  2  7  1  0
  2  8  1  0
M  END
$$$$
