5

N      -0.000084850392111     -0.000038361901179     -0.000039154091667
F      -0.565598440900000     -0.115397001612750      1.385740030534663
F      -1.077181552948344     -0.285496073129390     -1.005356409926789
F       0.526266489081577      1.389996319077659     -0.211578570492465
F       1.116698355158879     -0.989064882434340     -0.168665896023742
