
     RDKit          3D

  3  2  0  0  0  0  0  0  0  0999 V2000
    0.0023    0.4041    0.0000 O   0  0  0  0  0  0  0  0  0  0  0  0
    0.7819   -0.2066    0.0000 H   0  0  0  0  0  0  0  0  0  0  0  0
   -0.7842   -0.1975    0.0000 H   0  0  0  0  0  0  0  0  0  0  0  0
  1  2  1  0
  1  3  1  0
M  END
$$$$
