8
Properties=species:S:1:pos:R:3 pbc="F F F"
C        1.58000000       2.16100000       1.65400000
C        1.76300000       3.04300000       2.86200000
H        0.55600000       1.73900000       1.60500000
H        1.75500000       2.77400000       0.74400000
H        2.32700000       1.34100000       1.67700000
O        2.45700000       4.03500000       2.91500000
O        1.04200000       2.57800000       3.92900000
H        0.55600000       1.78900000       3.71100000
