8
Properties=species:S:1:pos:R:3 pbc="F F F"
C        2.71700000       0.38200000       2.53000000
C        1.62900000       1.39100000       2.27700000
H        2.29100000      -0.64200000       2.57900000
H        3.21200000       0.61800000       3.49500000
H        3.46600000       0.43100000       1.71400000
O        1.52500000       2.48800000       2.79000000
O        0.70700000       0.95400000       1.36200000
H        0.05400000       1.64400000       1.25800000
