18
Properties=species:S:1:pos:R:3 pbc="F F F"
C        1.96393800      -0.89118958      -0.34585381
O        1.61616826      -1.25506115      -1.71802902
H        2.40668321      -1.65183830      -2.02524853
H        3.05004668      -0.80975628      -0.35460854
H        1.54663682       0.17158127      -0.21106911
C        1.23430228      -1.81024647       0.62665558
H        1.58811879      -2.82336903       0.39615059
H        0.12595797      -1.70493889       0.42754173
H        1.33496189      -1.54952908       1.71683121
C       -1.36038315       1.25098896      -0.31014824
O       -2.30890775       2.07702541      -0.96970558
H       -2.02384830       2.18631363      -1.92329979
H       -1.40874910       0.23428822      -0.67552757
H       -0.31063247       1.44268703      -0.55177879
C       -1.74920917       1.27225304       1.23778343
H       -1.04898953       0.74939442       1.78685570
H       -2.73922276       0.84941864       1.25440788
H       -1.91686642       2.26197243       1.63907242
