18
Properties=species:S:1:pos:R:3 pbc="F F F"
C       -1.07857895       0.90175629       1.72669220
O       -0.85597420       1.09902763       0.32566833
H       -1.55207825       1.74999237       0.01400185
H       -1.08608055       1.84819603       2.34504890
H       -2.03959656       0.35094643       1.84813881
C        0.10180283       0.03108406       2.11592484
H        0.15010071      -0.91119766       1.48670006
H        0.17177010      -0.24094963       3.21590233
H        1.13672447       0.47630119       1.97091866
C        0.90629387      -0.15781212      -2.16412354
O        1.46497154       0.44279289      -0.99635887
H        0.75100136       0.71447945      -0.41861534
H        0.15723419       0.56045723      -2.58662987
H        1.65695000      -0.34220314      -2.96971893
C        0.16241074      -1.36637115      -1.59440804
H       -0.55603790      -1.12795830      -0.83746147
H        0.88816833      -2.10121536      -1.13997459
H       -0.37909698      -1.92728996      -2.34168243
