18
Properties=species:S:1:pos:R:3 pbc="F F F"
C       -2.44786549      -0.57704163       0.17812347
O       -1.47285271      -0.96262741      -0.74358177
H       -0.69519424      -0.38884354      -0.60967159
H       -3.33957481      -0.29553986      -0.40129948
H       -2.75685596      -1.41009903       0.84261227
C       -1.87084198       0.57880783       0.96986675
H       -2.52551651       0.85285950       1.76310062
H       -1.70403481       1.39632797       0.31811047
H       -0.86240387       0.39276886       1.47438908
C        2.14411545       0.29522705      -0.84071445
O        0.79640007       0.58482742      -1.16691494
H        0.89656258       1.01282120      -2.02200031
H        2.59212685      -0.19920731      -1.62957573
H        2.72010803       1.21751022      -0.77152538
C        2.17497063      -0.50147247       0.45807076
H        1.36805916      -1.28842735       0.25936604
H        1.85413170       0.21411133       1.20678139
H        3.12864113      -0.92198753       0.71482182
