18
Properties=species:S:1:pos:R:3 pbc="F F F"
C       -0.73833656      -1.53314590       0.56046295
O       -1.52285576      -1.04975128      -0.54346657
H       -1.85982323      -1.86206055      -1.00624657
H       -0.51079369      -0.67187881       1.25939178
H       -1.26248360      -2.37613106       1.01702118
C        0.52929306      -2.11080170      -0.10165405
H        1.05400848      -2.60676003       0.70677948
H        1.19127846      -1.33440018      -0.54179573
H        0.25322533      -2.90560341      -0.84136581
C        0.36453247       1.78575134      -0.67471695
O       -1.05510616       1.72243881      -0.88084984
H       -1.16325283       0.72104836      -0.83327675
H        0.77878571       0.82703209      -0.99908638
H        0.81171989       2.45409393      -1.34527588
C        0.68140030       2.20693970       0.77953339
H        1.76136971       1.82429695       0.94151306
H        0.10171127       1.59229851       1.52453995
H        0.58534622       3.31660843       0.97846603
