18
Properties=species:S:1:pos:R:3 pbc="F F F"
C        0.61272812      -0.88014889      -1.51943779
O        0.16558838      -0.17305565      -2.63535309
H       -0.80383301      -0.03114414      -2.55871487
H        1.74423981      -0.87875748      -1.52955627
H        0.39974213      -0.36647224      -0.58366394
C        0.03670883      -2.32983875      -1.44617271
H        0.82439423      -3.01522350      -1.05205536
H       -0.24389267      -2.78111362      -2.42415333
H       -0.86105347      -2.35946369      -0.70989418
C       -0.77447891       0.94633007       1.55973816
O       -1.32975006       1.62590027       0.46307755
H       -0.52168274       2.04669762      -0.04735947
H       -1.49180984       0.87987709       2.41775513
H       -0.50524521      -0.13351536       1.25642395
C        0.43402481       1.72992897       2.07945824
H        0.86477661       1.09460831       2.85840225
H        0.18840790       2.74121284       2.52958298
H        1.26110458       1.88417053       1.34188843
