18
Properties=species:S:1:pos:R:3 pbc="F F F"
C        0.37692261      -1.47925377      -1.41766024
O        0.77546120      -2.56082916      -2.25807285
H        0.77403259      -3.38622284      -1.72927475
H        1.19275665      -1.38133621      -0.74173212
H        0.34579659      -0.59500313      -2.09137821
C       -1.01329613      -1.84474754      -0.79052305
H       -0.93950272      -2.80146027      -0.19964075
H       -1.75128937      -2.02438927      -1.54732466
H       -1.53368950      -0.98286819      -0.14683294
C        0.52535057       1.91824341       0.76926851
O        1.09900856       0.68510246       1.26067781
H        1.68847466       0.32743645       0.59126425
H        1.36232758       2.70701599       0.63715792
H        0.03499222       1.81469154      -0.21221638
C       -0.51569366       2.38594055       1.82430315
H       -1.38454056       1.63096619       1.72601604
H       -0.99756050       3.31096077       1.46045828
H       -0.03958893       2.27579308       2.86550570
