18
Properties=species:S:1:pos:R:3 pbc="F F F"
C        0.96605873       1.87922478      -1.40181923
O        1.11712646       0.63008308      -0.73294830
H        2.01980400       0.33484268      -0.94624758
H        1.77561378       2.58236313      -1.10216808
H        0.99406242       1.72345352      -2.52588487
C       -0.47406769       2.30547333      -0.88955593
H       -0.87193108       3.06577682      -1.57483292
H       -0.55524254       2.62339973       0.14946508
H       -1.10084915       1.42131424      -1.03083277
C        0.18310356      -2.06726646       1.37413836
O        0.48049545      -0.73779678       1.69767761
H        0.61897850      -0.25057411       0.86929321
H        0.93904686      -2.54204559       0.71264124
H        0.13545990      -2.72276306       2.29247189
C       -1.23825741      -2.12457657       0.91511965
H       -1.73079872      -3.06797028       0.63129234
H       -1.32670975      -1.49591064      -0.01449394
H       -1.93190193      -1.55705643       1.57668638
