18
Properties=species:S:1:pos:R:3 pbc="F F F"
C        0.91328716       1.19883919      -2.00859547
O        1.13023853       2.27531910      -2.88159370
H        2.05361843       2.21452713      -3.18129444
H        0.35413933       0.34791851      -2.52805519
H        1.92320919       0.89721489      -1.62915516
C        0.05073643       1.60189342      -0.80461025
H        0.59790516       2.28875828      -0.15605545
H       -0.13775921       0.74644947      -0.16686821
H       -0.91978455       1.94452763      -1.21518421
C       -0.95874023      -1.90658665       1.32982063
O        0.21851063      -2.10037422       0.62381268
H       -0.13676167      -2.48026752      -0.26516819
H       -1.74042988      -1.48430443       0.65210915
H       -1.29726219      -2.88323402       1.80581665
C       -0.59913349      -0.90372276       2.36804771
H        0.23455811      -1.25132084       3.04973125
H       -1.42598438      -0.62345409       3.06081009
H       -0.26032257       0.11785221       1.94644165
