18
Properties=species:S:1:pos:R:3 pbc="F F F"
C        0.41482985      -2.29158211       0.56531525
O        1.32315862      -3.43589020       0.66348839
H        0.71717894      -4.20509720       0.84874535
H       -0.38844097      -2.33923340      -0.24072456
H        0.00986266      -2.15336227       1.53544998
C        1.40935481      -1.15004158       0.15967941
H        2.00492334      -1.49535942      -0.68576622
H        2.00959873      -0.95016289       1.03954124
H        0.78016305      -0.24820900      -0.15443230
C       -1.39583910       2.20741272      -0.58933067
O       -1.92462289       0.90742111      -0.19243050
H       -2.82303667       0.98575592       0.02168846
H       -1.68018186       2.27444077      -1.64496994
H       -1.92824686       2.93244934       0.01384354
C        0.10038769       2.23510361      -0.33173752
H        0.29111302       1.89101791       0.65776253
H        0.53100026       3.27255630      -0.57484055
H        0.54879582       1.56278229      -1.09134102
