18
Properties=species:S:1:pos:R:3 pbc="F F F"
C        0.15302181       1.64759445      -1.81972599
O        0.24266529       1.31887054      -0.43781328
H        1.21276379       1.06104279      -0.40978813
H       -0.94432449       1.85350037      -2.08927727
H        0.81882000       2.47286224      -2.11543322
C        0.62069511       0.39768219      -2.62031603
H        1.66629601       0.06713104      -2.58215475
H        0.26451302       0.59437561      -3.65831089
H        0.02115059      -0.53322983      -2.31060553
C       -1.06736755      -1.10768700       2.21703911
O       -1.37445450       0.24946213       1.96862698
H       -1.41986465       0.46786499       1.03318310
H       -1.36736298      -1.19542503       3.26452351
H       -1.79900932      -1.82757568       1.65645981
C        0.43203831      -1.37657547       2.02975464
H        0.84441090      -2.23253250       2.59187603
H        1.03799152      -0.45348358       2.35731506
H        0.65801144      -1.40389061       0.92466450
