18
Properties=species:S:1:pos:R:3 pbc="F F F"
C       -0.14472294      -1.05353928      -1.41902351
O       -0.22517109      -2.19029999      -0.49770737
H       -0.71078587      -1.97820282       0.31077003
H       -1.08366299      -0.64566040      -1.67556381
H        0.32159901      -0.16738319      -0.78768539
C        0.83934402      -1.42121887      -2.56947708
H        0.85847569      -0.65437698      -3.38538933
H        0.46135044      -2.33071327      -3.09274292
H        1.86869526      -1.45103073      -2.08408165
C       -0.81770420       1.27803802       1.85600471
O       -0.86522293      -0.04493332       1.48715210
H       -0.80537128      -0.61007690       2.28462601
H       -1.67803478       1.78833008       1.34397125
H       -0.93469429       1.38434219       3.01478958
C        0.48140335       1.93805695       1.39707756
H        0.46707058       2.94145584       1.60326195
H        0.72128487       1.74509811       0.33399582
H        1.24616337       1.47212219       1.88007736
