18
Properties=species:S:1:pos:R:3 pbc="F F F"
C        0.32620049       1.17318153       1.86824036
O       -0.67158318       0.33488083       1.21595573
H       -1.36362648       0.37645531       1.81513977
H       -0.23356628       2.01247978       2.38732338
H        0.84260178       0.68844223       2.71157837
C        1.27122879       1.73494339       0.78668594
H        1.45236015       2.84490967       0.88235092
H        0.85850716       1.55949211      -0.19231606
H        2.17383766       1.09930229       0.83129501
C        0.02105522      -0.95489120      -1.70800400
O       -0.80060196       0.20392799      -1.59123993
H       -0.73976517       0.33212471      -0.61689186
H        0.30254173      -1.16030502      -2.71517563
H        0.91095924      -0.93571854      -1.03553772
C       -0.95733643      -2.08809280      -1.25494576
H       -1.24419403      -1.91286469      -0.25691032
H       -0.40166664      -3.08598709      -1.22956276
H       -1.74696732      -2.22231102      -1.89795494
