18
Properties=species:S:1:pos:R:3 pbc="F F F"
C        1.41009521       1.62672615       0.42816281
O        1.89155769       0.49546432       1.13633919
H        2.83755112       0.70878315       1.27367091
H        0.39769554       1.83063507       0.87481475
H        2.01485443       2.54420662       0.73074079
C        1.37976837       1.42570400      -1.07937944
H        0.87384987       0.45802498      -1.30463517
H        2.41221905       1.38655472      -1.56670642
H        0.90792847       2.29490852      -1.59436035
C       -1.11210823      -1.23445129      -0.01624751
O       -0.82293320      -0.69952202       1.20147586
H        0.15339375      -0.42036152       1.18798423
H       -0.99612427      -0.41105080      -0.76922631
H       -0.39943504      -2.13379860      -0.12161756
C       -2.48335743      -1.83897972      -0.06431866
H       -2.61253357      -2.23454571      -1.11321688
H       -3.28074074      -1.11620617       0.12973356
H       -2.57166100      -2.68210697       0.66678834
