18
Properties=species:S:1:pos:R:3 pbc="F F F"
C        0.54608059      -2.02941132       1.17541790
O        1.02747726      -1.11586571       0.17465401
H        1.69709396      -1.48337460      -0.34392262
H       -0.25820637      -2.80690098       0.94842625
H        1.40995026      -2.59041309       1.57782078
C       -0.14161587      -1.12724876       2.17156029
H        0.41666222      -0.30579948       2.43432808
H       -0.48956299      -1.64986038       3.07312679
H       -1.04278946      -0.68342400       1.67114162
C       -0.58718967       1.36417007      -2.12325191
O       -0.94961166       0.07875633      -1.53952312
H       -0.17516994      -0.31172752      -0.98249531
H        0.17462254       1.25184059      -2.89747429
H       -1.45231628       1.86401558      -2.58566236
C       -0.09342194       2.23504257      -0.90576077
H       -0.97240067       2.41458321      -0.26343727
H        0.26895618       3.22505188      -1.31342316
H        0.62144089       1.67053986      -0.27153683
