18
Properties=species:S:1:pos:R:3 pbc="F F F"
C       -1.61332750       0.22003216      -1.37175179
O       -0.21976805      -0.08762485      -1.12806892
H        0.21915102       0.20672911      -1.92805862
H       -2.22680378      -0.70444494      -1.07849312
H       -1.98922777       1.08936691      -0.71891022
C       -1.67648554       0.41737604      -2.89085960
H       -1.38059950      -0.52699471      -3.39074326
H       -1.05619764       1.21017158      -3.22747803
H       -2.71708536       0.62914836      -3.25783539
C        1.03961611      -0.21466956       1.69643784
O        0.02350283      -0.20043492       2.69425011
H       -0.85272551      -0.14809924       2.32914352
H        0.85467768      -1.05547142       0.98225975
H        1.10951281       0.75782394       1.11671066
C        2.36518145      -0.39418650       2.38949203
H        3.20886755      -0.46868396       1.69493484
H        2.40788412      -1.21219325       3.06323433
H        2.50382280       0.48215497       3.02570152
