18
Properties=species:S:1:pos:R:3 pbc="F F F"
C       -1.54354286      -0.47174835       1.08320045
O       -1.96692848      -0.35144806      -0.26640892
H       -1.21694565      -0.19697571      -0.78245735
H       -1.10924721      -1.48130798       1.34162903
H       -0.89875984       0.37668991       1.37055397
C       -2.74168205      -0.23114014       2.03949165
H       -3.45837021      -1.09009933       1.94869804
H       -3.33547020       0.64773941       1.83045769
H       -2.34297180      -0.07463837       3.06944084
C        2.03491402       0.87486649      -1.19915009
O        1.00309372       0.68992996      -0.27718163
H        0.61145782       1.61814880      -0.29142570
H        1.65662956       1.44031143      -2.09311104
H        3.00352287       1.39012909      -0.80988884
C        2.50202751      -0.53428650      -1.62887383
H        3.29133034      -0.96370697      -0.92627525
H        2.89613152      -0.44258118      -2.69360352
H        1.61476898      -1.19992065      -1.71507454
