18
Properties=species:S:1:pos:R:3 pbc="F F F"
C        0.01755524       1.59519958      -1.11405563
O       -1.13499260       0.79637909      -1.54092216
H       -0.86101913      -0.17169571      -1.48917198
H        0.91211510       0.93507385      -1.04383850
H        0.17253113       2.30867386      -1.95208359
C       -0.28744507       2.37696075       0.09414101
H        0.62123489       3.05396271       0.30650902
H       -0.48387909       1.69181442       0.88160133
H       -1.23010635       3.00199509      -0.07961082
C        0.75508499      -1.84438705       0.44315338
O        0.34483147      -1.76422691      -0.91007423
H        0.67538643      -2.58689117      -1.31196213
H        1.11218071      -2.91991425       0.69496346
H        1.59120178      -1.16485214       0.57765388
C       -0.37438011      -1.44365501       1.39428520
H       -0.68513298      -0.37303162       1.20403099
H        0.11348343      -1.44987488       2.42835999
H       -1.25863457      -2.04153252       1.41700172
