18
Properties=species:S:1:pos:R:3 pbc="F F F"
C       -0.76359558       0.55366135       1.71625662
O       -0.96634483      -0.51337051       0.78467798
H       -0.39072609      -0.27102089      -0.02456236
H        0.30139542       0.59169388       1.84757757
H       -1.13980675       1.52746582       1.31994200
C       -1.48104858       0.21160507       2.98687696
H       -1.39773178       1.01222420       3.72296667
H       -1.18352890      -0.63846207       3.51006079
H       -2.57987595       0.15635681       2.68614149
C        1.35582733       0.13733292      -2.30336618
O        1.17269135       0.85061646      -1.08592415
H        1.69789124       1.67439079      -1.13447046
H        0.93339348       0.82709122      -3.07991123
H        2.37778473       0.00024796      -2.57792997
C        0.63900566      -1.26273537      -2.09863043
H       -0.40173912      -1.20763779      -1.67268467
H        1.28901672      -1.92753410      -1.48779249
H        0.53741074      -1.72191811      -3.10920668
