18
Properties=species:S:1:pos:R:3 pbc="F F F"
C       -2.16625357       0.85891724       0.80182076
O       -1.12634087       0.29622269       1.66161203
H       -0.34752226       0.44732094       1.13461733
H       -3.10609531       0.86386299       1.34175730
H       -1.84017706       1.93125725       0.65862703
C       -2.23633242       0.03166771      -0.46026611
H       -3.18317413       0.26082802      -1.03581667
H       -2.36354733      -1.02311325      -0.21721601
H       -1.34354162       0.11580849      -1.16677952
C        1.32127237      -0.64663124      -0.45799971
O        0.95064783       0.75183105      -0.34065628
H        1.53504801       1.17497826      -1.01133204
H        0.55704641      -1.29164314       0.05763197
H        1.37237120      -1.00100708      -1.50816679
C        2.70072699      -0.64898682       0.05408716
H        3.02028608      -1.72627258       0.33400393
H        2.79207850      -0.00809669       0.89785624
H        3.46352053      -0.38698769      -0.74378157
