18
Properties=species:S:1:pos:R:3 pbc="F F F"
C        0.74237823       1.32825279      -0.86772346
O        1.68368912       0.80515671       0.06033134
H        1.22804451       0.24724960       0.77285767
H        0.08886719       0.52719307      -1.12952614
H        0.07021523       2.11826324      -0.37639427
C        1.40370941       1.93674088      -2.16536522
H        2.34974670       2.47818565      -2.08999062
H        0.74497223       2.74912453      -2.60523605
H        1.58876038       1.10130501      -2.89914322
C       -1.23923683      -0.96784973       1.49655724
O        0.19138145      -0.83811188       1.63416672
H        0.32738495      -0.15730476       2.34779549
H       -1.70047379      -0.93989944       2.55332947
H       -1.65745544      -0.16698265       0.84801674
C       -1.40416718      -2.30507660       0.76367760
H       -0.78099632      -2.24551582      -0.15948296
H       -2.43242836      -2.46714783       0.48064423
H       -1.20441628      -3.20365524       1.33546257
