18
Properties=species:S:1:pos:R:3 pbc="F F F"
C       -0.78893518      -2.34746504      -0.74255180
O       -0.14847231      -1.20766020      -1.23016357
H        0.17510176      -1.36721468      -2.10923767
H       -1.60626268      -2.56093121      -1.46626663
H       -0.00554848      -3.18198872      -0.90990829
C       -1.27414703      -2.16014242       0.70970726
H       -1.97519445      -1.29515982       0.78563118
H       -0.43909836      -1.99738073       1.45051193
H       -1.80980635      -2.96228123       1.18962669
C        1.07070208       1.64405584       0.22720528
O       -0.08609009       1.37228060      -0.54693222
H       -0.08462143       0.43413877      -0.70680237
H        1.01831770       0.97959280       1.03353500
H        1.98249197       1.53458643      -0.40861893
C        0.95223761       3.02283239       0.57311630
H        0.99333715       3.75864935      -0.30592537
H        1.88261080       3.21776152       1.12688446
H        0.14336061       3.11633825       1.33015060
