18
Properties=species:S:1:pos:R:3 pbc="F F F"
C       -1.59689307      -1.40012550      -0.69349289
O       -1.52708673      -0.26030731       0.08246613
H       -1.71511793       0.45183182      -0.53130722
H       -2.64608836      -1.61842728      -0.81111908
H       -1.17982221      -1.24020576      -1.71572781
C       -0.84656191      -2.49995518       0.14602661
H       -0.05220175      -2.06175232       0.76573563
H       -0.47614145      -3.28180313      -0.48770332
H       -1.54813910      -2.96828747       0.83383179
C        1.73083305       1.18069077       0.16309738
O        1.18648815       0.50734901       1.27605820
H        0.40735674       0.13634872       0.86471558
H        2.78530979       1.31850243       0.46472740
H        1.56363201       0.49468231      -0.69036865
C        1.09784031       2.55030823       0.07848358
H        1.25644779       3.11112213       1.03162575
H       -0.02992153       2.53324509      -0.03669739
H        1.59005785       3.04675674      -0.74036407
