18
Properties=species:S:1:pos:R:3 pbc="F F F"
C        0.30133438      -1.82852316      -1.63834953
O       -0.80479431      -1.21835089      -0.95836830
H       -1.52647400      -1.19352961      -1.62994766
H       -0.00493240      -2.84828758      -1.96053505
H        0.60626984      -1.14688158      -2.47099304
C        1.43595505      -1.91765881      -0.63779640
H        2.37955475      -2.30325842      -1.13739777
H        1.17040253      -2.70290852       0.13961983
H        1.69403076      -0.85635281      -0.19506645
C       -1.13986588       2.07815027       1.52046394
O       -1.44414139       0.80957365       2.01126671
H       -1.48608017       0.20018959       1.29782867
H       -1.89953613       2.47558546       0.89664841
H       -1.05028152       2.92463541       2.21328926
C        0.19395065       1.87188101       0.79590416
H       -0.02379227       1.54290628      -0.17076302
H        0.94351196       1.23261547       1.31121063
H        0.65492630       2.88021421       0.61297607
