18
Properties=species:S:1:pos:R:3 pbc="F F F"
C       -0.01192236      -0.33590806       1.86116219
O       -0.32301855      -1.42041779       0.97939587
H       -0.27663374      -2.18552971       1.58913040
H        0.77852869      -0.61903596       2.55517769
H        0.46867228       0.43745935       1.28366947
C       -1.31733179       0.13705552       2.48838043
H       -1.94013739       0.56388748       1.73763561
H       -1.02988052       0.87150633       3.27737808
H       -1.89450502      -0.68718469       2.90765953
C        0.29974604       0.22788537      -1.65968227
O        1.24884653      -0.66678286      -1.12206984
H        0.87418890      -1.03717494      -0.30801105
H       -0.56530619      -0.43938243      -1.76770496
H        0.02036715       1.03892100      -0.92448997
C        0.79742479       0.85017908      -2.94565439
H        1.31746149       0.14592111      -3.63488340
H        1.52876997       1.68445051      -2.81938124
H        0.02471685       1.43414843      -3.49770164
