18
Properties=species:S:1:pos:R:3 pbc="F F F"
C       -1.65166247       1.55923557      -0.93927002
O       -0.34908760       1.66278648      -0.49202347
H       -0.02508307       0.76233673      -0.48809052
H       -2.20462680       2.47995090      -0.80876160
H       -1.77472210       1.31845665      -1.95547199
C       -2.22366595       0.50098133      -0.00583363
H       -3.36921930       0.56294632      -0.13462257
H       -1.98272431       0.57077217       1.08099365
H       -1.81276655      -0.52053833      -0.27753830
C        1.48759985      -1.47174931       0.10430145
O        1.42374563      -0.64060402      -1.04329681
H        2.32973289      -0.56702328      -1.33732510
H        0.55143929      -2.08629227       0.39738655
H        2.18856144      -2.28547859      -0.18883324
C        1.79890633      -0.64427567       1.30910206
H        0.87553310      -0.20107269       1.69534302
H        2.40472603       0.28799248       1.03590202
H        2.33331585      -1.28839684       2.04804611
