18
Properties=species:S:1:pos:R:3 pbc="F F F"
C        2.60580635       0.39768791      -0.74760914
O        1.64929771      -0.47030449      -1.40185356
H        2.02933884      -0.54308891      -2.29285717
H        3.54128456      -0.18363380      -0.58400154
H        2.79410267       1.32611847      -1.40329838
C        1.99510288       0.83008766       0.61070061
H        1.05840397       1.28746605       0.41459274
H        2.58198166       1.63780785       1.11257267
H        1.82667351       0.01341438       1.31546497
C       -2.60604286      -0.79987144      -0.13511658
O       -1.46476316      -1.54951286      -0.48605824
H       -0.85405302      -0.91313744      -0.92750454
H       -2.81914997      -0.05600166      -0.95087814
H       -3.49535656      -1.49229240       0.06432819
C       -2.27062893      -0.03186417       1.12967014
H       -3.15757656       0.55190659       1.44260883
H       -1.42416286       0.67085266       0.86790752
H       -1.99024200      -0.67557335       1.97134590
