18
Properties=species:S:1:pos:R:3 pbc="F F F"
C        0.94773674       1.46075058       0.79573441
O        2.07576370       1.50023270       1.69010925
H        2.33073425       0.55235481       1.88652802
H        0.90934944       2.39250946       0.26891327
H        1.14529037       0.68604279       0.11208725
C       -0.31026459       1.20470238       1.60992813
H       -0.51603317       2.13529015       2.11939240
H       -0.23925018       0.39851952       2.35782814
H       -1.13615608       0.83497620       0.98585510
C       -0.50919342      -1.75731277      -0.96030045
O        0.39976692      -2.31929207      -1.91147995
H        1.26607895      -2.19582748      -1.56192017
H       -1.30505753      -2.50409317      -0.65828514
H        0.16399384      -1.43825912      -0.13444901
C       -1.18067169      -0.48876762      -1.54293442
H       -2.14681435      -0.27514648      -1.06076241
H       -1.37843323      -0.57965469      -2.62858963
H       -0.51684189       0.39306831      -1.36764145
