18
Properties=species:S:1:pos:R:3 pbc="F F F"
C       -0.87261009      -0.58632660       2.20164871
O       -1.87237358      -1.44140244       2.70084000
H       -2.17451096      -1.72311020       1.78908920
H       -0.10194016      -0.52398682       2.95569992
H       -0.45807838      -1.08558464       1.32907295
C       -1.40254021       0.80917740       1.70517731
H       -0.71268654       1.35481071       0.96923065
H       -1.49150467       1.48309135       2.63262558
H       -2.47077560       0.84371758       1.35298538
C        1.33837128      -0.39492226      -1.72386551
O        2.08295822      -0.92688751      -2.80733109
H        2.57309341      -1.65779114      -2.39602280
H        0.47144127      -1.05403519      -1.41584396
H        1.95116425      -0.38497543      -0.80886078
C        0.86249161       1.06442642      -2.05298996
H        1.76832199       1.63322067      -2.48882866
H        0.47930717       1.58743668      -1.13062668
H        0.02991867       1.00321007      -2.81200027
