18
Properties=species:S:1:pos:R:3 pbc="F F F"
C       -1.42780304       1.84080505       1.09277725
O       -0.94649887       1.85376930      -0.19573593
H       -1.18445587       2.78930473      -0.46442032
H       -0.91681671       2.69696426       1.60198975
H       -2.49778366       1.94594193       1.02798462
C       -1.10627365       0.49319267       1.74410248
H       -1.50283813       0.45071793       2.77648163
H       -0.03162193       0.42340088       1.82342911
H       -1.54158783      -0.33337021       1.14756775
C        0.74514389      -1.14116669      -1.25879288
O        1.15359116      -0.02552414      -0.50024033
H        0.30698967       0.49086571      -0.21623611
H       -0.23253250      -1.50487709      -0.91199112
H        0.62701225      -0.72476959      -2.26263428
C        1.92593384      -2.16669846      -1.33103180
H        2.79978561      -1.64395142      -1.80160713
H        1.65532112      -2.97543526      -1.94867134
H        2.17444420      -2.46918106      -0.32292938
