18
Properties=species:S:1:pos:R:3 pbc="F F F"
C        1.14335585      -1.32229853       0.55579758
O        2.39584541      -1.56814504       1.26395035
H        2.71303272      -0.66068077       1.32800674
H        0.39240885      -1.05853820       1.30898666
H        1.24266052      -0.43646407      -0.10527039
C        0.89964914      -2.59981704      -0.26557541
H        1.68744087      -2.79685640      -1.05367279
H       -0.07604790      -2.68041682      -0.81856537
H        0.88308811      -3.53693175       0.44197464
C       -1.13897419       1.93914175       0.22478867
O       -0.62283325       3.13294935      -0.28242111
H       -0.24585295       3.61752129       0.44635010
H       -0.31045055       1.40629435       0.69770050
H       -1.94340849       2.16019726       0.91719818
C       -1.63995123       1.21517467      -0.90299416
H       -2.11511016       0.24735117      -0.68876648
H       -0.81024599       1.20776081      -1.67718697
H       -2.45462298       1.73376179      -1.39031219
