18
Properties=species:S:1:pos:R:3 pbc="F F F"
C       -1.10550117       1.28170395       0.22398376
O       -0.53101921       1.16014862      -1.08510017
H       -0.36528969       0.21734047      -1.31370354
H       -2.01686668       0.65246201       0.20229721
H       -0.33693123       1.02221680       0.97398758
C       -1.50443459       2.67599678       0.42592812
H       -2.19091988       2.80132294       1.30681419
H       -1.82139206       3.15001488      -0.54794502
H       -0.54188728       3.15196228       0.81118965
C        0.57664108      -2.01223373       0.15731049
O       -0.07055092      -2.09758759      -1.10817242
H        0.36283875      -2.84772873      -1.67179298
H       -0.06955910      -1.45421028       0.85989952
H        0.69215012      -3.01040268       0.68391228
C        2.00996971      -1.26321411       0.06483841
H        2.61023521      -2.10791397      -0.39526939
H        2.50377846      -0.95598221       1.02121162
H        1.79873085      -0.36387825      -0.60934448
