18
Properties=species:S:1:pos:R:3 pbc="F F F"
C        1.57321548       1.32920837       1.02257252
O        1.46124077      -0.06820679       0.77606106
H        2.00856209      -0.56492996       1.42654896
H        1.99267197       1.47646141       2.05235958
H        2.32259941       1.83304787       0.37340069
C        0.21408844       1.96482658       0.98165131
H        0.25440598       3.01892853       1.31591129
H       -0.42602539       1.43204308       1.70803642
H       -0.07953644       1.89771843      -0.12150764
C       -1.19550323      -0.74084282      -1.14563656
O        0.15272331      -0.52518654      -1.54814434
H        0.67776680      -0.28911400      -0.73538780
H       -1.34587288      -0.15285492      -0.20242977
H       -1.96648407      -0.38974190      -1.94268322
C       -1.39095306      -2.21902657      -1.03847980
H       -2.26981354      -2.53820801      -0.43499756
H       -0.55011368      -2.70479202      -0.46583652
H       -1.43298912      -2.75938988      -2.02145195
