18
Properties=species:S:1:pos:R:3 pbc="F F F"
C       -0.69018555       1.35812831      -0.08413696
O       -1.51825333       1.36458063      -1.21511650
H       -1.27676964       0.49005580      -1.63528633
H       -1.01242447       0.61118507       0.56711578
H        0.43203735       1.17152977      -0.40819550
C       -0.80208397       2.73937607       0.55932808
H       -0.33134460       3.53320265      -0.07255554
H       -0.20180893       2.65013933       1.48965454
H       -1.88543320       2.78960466       0.91660118
C        0.36083603      -2.16628599      -0.03284836
O       -0.03840828      -1.60210204      -1.33346939
H       -0.90910339      -1.90564322      -1.48830032
H       -0.37607384      -1.95544541       0.74155426
H        0.46437263      -3.25042939      -0.09499359
C        1.67724800      -1.60556889       0.45960426
H        2.33627319      -1.49090695      -0.46824837
H        2.28492737      -2.19825172       1.16147232
H        1.48616982      -0.53316689       0.93786240
