18
Properties=species:S:1:pos:R:3 pbc="F F F"
C        0.07112503      -0.72668076       1.68721962
O        1.22570801      -0.39592552       0.87709522
H        0.90003204       0.39588547       0.32339001
H        0.04924774       0.05463314       2.54811954
H       -0.80701828      -0.61626148       1.10574818
C        0.21588135      -2.15383148       2.23329258
H        0.69243240      -2.88621712       1.62524891
H       -0.77990341      -2.54427338       2.41920567
H        0.69794846      -2.18062210       3.19297409
C       -0.14736938       1.74988747      -1.85523987
O        0.51993561       1.93026257      -0.59515858
H        0.50930405       2.90574741      -0.53815079
H       -1.10407257       2.34063625      -1.79511261
H        0.46073914       2.15150356      -2.71749306
C       -0.50765610       0.29996586      -2.10789919
H       -1.13600922      -0.08375740      -1.27810669
H        0.34157944      -0.43517494      -2.17653942
H       -1.20188522       0.19422626      -2.94861889
