18
Properties=species:S:1:pos:R:3 pbc="F F F"
C        0.65591240      -2.33964157      -0.62277031
O       -0.05556011      -1.23694611      -1.13735962
H        0.25352478      -1.29019928      -2.04801178
H        0.11224651      -3.31179810      -1.03753853
H        1.67440796      -2.19481277      -0.98617172
C        0.64894390      -2.29014778       0.92155838
H        1.52111626      -2.78067398       1.40653229
H       -0.24321175      -2.63404846       1.52292633
H        0.73579693      -1.21993637       1.22409439
C       -1.02431774       2.32816315      -0.45789337
O       -1.92096233       2.81000710       0.53272629
H       -2.30607033       2.05374527       1.09289551
H       -1.39932346       1.37415695      -0.94706726
H       -0.87256145       3.11734390      -1.15798950
C        0.30099392       1.98910904       0.29660988
H        0.07278156       1.55086899       1.30114365
H        0.91953754       2.85090065       0.32482147
H        0.92676067       1.22388268      -0.22846413
