18
Properties=species:S:1:pos:R:3 pbc="F F F"
C       -1.47687674      -0.58391953      -0.18223667
O       -1.39777803       0.52191353       0.73956966
H       -0.47647953       0.82326317       0.56544113
H       -0.84708595      -0.48654366      -1.11372280
H       -1.05755377      -1.49693680       0.34766293
C       -2.94954395      -0.76547623      -0.68719578
H       -3.23650169       0.18408012      -1.32296658
H       -3.61007309      -0.80021858       0.18338394
H       -3.24478912      -1.74407196      -1.12832546
C        2.02569389       0.45622253      -0.27388954
O        1.11671066       1.49553871      -0.35126877
H        1.16166258       1.88249588      -1.30368328
H        1.77695751      -0.43519020      -0.79477978
H        3.03319931       0.79639626      -0.72552776
C        2.24610233       0.09853935       1.19493675
H        2.37208462       1.00605011       1.92975903
H        3.18922901      -0.47533417       1.40904140
H        1.37503529      -0.47682381       1.51381016
