18
Properties=species:S:1:pos:R:3 pbc="F F F"
C        1.46705270       0.61103654       1.49051857
O        0.41402173       1.53659272       1.06635284
H        0.85036898       2.22197509       0.46575737
H        2.18085551       0.33657050       0.68216896
H        2.06607175       1.19194913       2.26033211
C        0.76342893      -0.58051658       2.13237190
H        1.49598503      -1.39821935       2.51371002
H        0.07411730      -1.10889649       1.39661789
H        0.04177296      -0.19768858       2.92096710
C       -0.79196894       0.28836274      -1.77875614
O       -1.66426122       0.90063739      -0.81611061
H       -1.22193730       0.88496351       0.04550552
H       -0.95684421       0.82756400      -2.74678802
H        0.26495790       0.43827176      -1.45716476
C       -1.18004084      -1.15832901      -1.96090317
H       -0.58617938      -1.57275581      -2.84514809
H       -2.19272423      -1.41625702      -2.29542542
H       -1.02467549      -1.80525970      -1.07401848
