54
Properties=species:S:1:pos:R:3 pbc="F F F"
C        1.88037109      -0.85124838       0.74444962
H        2.12349129      -1.18247986       1.80209732
H        0.93243217      -1.42459440       0.48692894
O        2.95210075      -1.26882160      -0.11749077
H        3.01477242      -2.23515010      -0.00865555
C        1.57762527       0.63406897       0.75301933
H        2.46654701       1.16598010       1.08096695
H        1.39278603       0.81336641      -0.28352165
C        0.37619019       0.84311867       1.63485146
H        0.66711235       0.41670465       2.66757965
H       -0.50429153       0.28511167       1.28900909
C       -0.15231323       2.27600861       1.74950027
H       -0.24624443       2.69995022       0.75768566
H        0.60292435       2.90854311       2.33387756
C       -1.48472214       2.26234722       2.50581169
H       -2.06754112       3.20064735       2.35346222
H       -2.22832775       1.49969840       2.13167763
C       -1.26920891       2.03097773       4.04417038
H       -0.45156479       1.29402876       4.20613480
H       -2.12438774       1.58414984       4.55964470
C       -0.92985535       3.37316656       4.67649841
H       -0.14119911       3.91798782       4.16565132
H       -1.90045261       4.08451080       4.58705330
C       -0.54038811       3.30150223       6.18393707
H       -1.13571930       2.44217205       6.62638283
H        0.54154015       3.11917877       6.36662674
H       -0.81519890       4.22479630       6.72151947
C        0.87236977      -5.01131010      -1.97170734
H        1.34914207      -5.33235407      -1.02891541
H       -0.23886299      -5.11571646      -1.89533997
O        1.13347626      -5.88292408      -3.03242207
H        0.68051529      -6.78213263      -2.94294739
C        1.41810417      -3.64546394      -2.42838860
H        1.23251915      -2.93305159      -1.57162952
H        2.54159737      -3.70979142      -2.56074905
C        0.57290077      -3.12069988      -3.61684036
H       -0.50549030      -3.39956021      -3.38133717
H        0.97423553      -3.56981993      -4.54113388
C        0.57662392      -1.57916093      -3.65280628
H        0.44735527      -1.20347047      -4.70566750
H        1.62018967      -1.31249201      -3.39770699
C       -0.43769455      -0.89227128      -2.71296024
H       -1.40258980      -1.22266245      -3.15961456
H       -0.39837742      -1.34097528      -1.66777420
C       -0.16082287       0.61660409      -2.81778336
H       -0.09661865       0.82355499      -3.88745689
H        0.88066673       0.78382015      -2.45742798
C       -1.09239197       1.56063461      -2.02841377
H       -1.09869099       1.19563007      -0.99341869
H       -0.69591522       2.54919958      -2.14022446
C       -2.38261795       1.73032570      -2.69348049
H       -2.31814861       2.08366251      -3.76473808
H       -2.95374107       0.75903797      -2.75170231
H       -3.05423164       2.53569555      -2.21635818
