54
Properties=species:S:1:pos:R:3 pbc="F F F"
C       -2.84672570      -1.80761909      -3.64352989
H       -3.64928818      -1.95532227      -2.95514250
H       -2.94498873      -0.83783531      -4.16447020
O       -2.97106671      -2.88828850      -4.61542130
H       -2.78530169      -2.43935204      -5.48891115
C       -1.53435659      -1.97034264      -2.96114254
H       -1.47161126      -3.05146599      -2.47055244
H       -0.67964649      -1.80243874      -3.64859486
C       -1.34312701      -0.86033058      -1.83072662
H       -1.16929150       0.07398224      -2.39386559
H       -0.37883711      -1.12649727      -1.31655025
C       -2.54359961      -0.73610497      -0.88860035
H       -2.86739731      -1.69062805      -0.42763519
H       -3.40733933      -0.18614388      -1.35883760
C       -2.12362957       0.15937424       0.27624416
H       -1.31650043      -0.38470459       0.68576813
H       -1.75059938       1.11887169      -0.02165318
C       -3.15970230       0.28295326       1.41006088
H       -3.41792917      -0.80360985       1.85880756
H       -4.11104107       0.72639084       1.00875282
C       -2.73704886       1.10204124       2.63365746
H       -1.81894112       0.62015152       3.08360863
H       -2.34685659       2.03059959       2.24353313
C       -3.70485163       1.28116989       3.78367901
H       -3.90998316       0.32101250       4.28042507
H       -3.29506016       2.03341484       4.52288151
H       -4.71357393       1.67621040       3.53678322
C        2.65618277      -2.97175980       1.34751701
H        1.83152771      -2.61736870       2.02326202
H        2.32021999      -3.72719765       0.55011177
O        3.69112253      -3.64587402       2.09382820
H        4.13933611      -4.36012650       1.60705948
C        3.35579252      -1.78027153       0.77215195
H        3.58146429      -1.12120628       1.61216927
H        4.32198763      -2.08862686       0.30388355
C        2.48744917      -0.89322472      -0.12695789
H        1.45099115      -0.69301414       0.30482769
H        2.43295813      -1.43161201      -1.07698631
C        3.20332098       0.42872238      -0.46491432
H        2.69734240       0.84714699      -1.36845684
H        4.25636721       0.22329140      -0.84971619
C        3.27428865       1.42513084       0.66301155
H        3.74041319       0.87575722       1.50687408
H        4.03090906       2.11768532       0.29550552
C        1.99620199       2.13959694       1.05172825
H        2.22099447       2.95795250       1.79446697
H        1.23952484       1.40976906       1.52497864
C        1.12345600       2.83973885       0.00147343
H        0.59724855       2.14064598      -0.72404671
H        0.20649147       3.27993584       0.43975353
C        1.88192892       3.79716682      -0.87267303
H        2.64962244       3.24958229      -1.45191813
H        1.10141659       4.09701347      -1.65593100
H        2.50976467       4.61551476      -0.43949413
