54
Properties=species:S:1:pos:R:3 pbc="F F F"
C       -1.44849205       2.81773567      -0.70323086
H       -1.98418808       2.24152184      -1.47350502
H       -1.90335083       3.86954308      -0.54256558
O       -0.14437866       3.12076569      -1.29132307
H        0.34211349       3.61948204      -0.57691693
C       -1.16226768       2.00488091       0.55531812
H       -2.06011581       1.61057472       1.08450103
H       -0.57427788       1.08218002       0.17119670
C       -0.41267586       2.61506271       1.71987414
H       -0.57228661       3.69494438       1.74305749
H        0.68649292       2.48877716       1.50435710
C       -0.79699898       1.92685509       3.11239505
H       -1.85689354       2.17763138       3.31156135
H       -0.03494263       2.37460518       3.77424169
C       -0.61974907       0.40887260       2.99896359
H       -1.43728256      -0.00133705       2.36207223
H        0.28228951       0.15585709       2.39115977
C       -0.68609428      -0.44080734       4.34215355
H       -1.79644203      -0.50805092       4.69860554
H       -0.18902779       0.08368683       5.16968822
C       -0.00603485      -1.75941277       4.26504326
H       -0.59123802      -2.33119774       3.48662305
H        1.06011581      -1.60075951       3.91419482
C        0.13801765      -2.58465576       5.55797768
H        0.88313866      -2.09784889       6.25001144
H       -0.77164459      -2.77218628       6.06803131
H        0.52684593      -3.65140152       5.28041744
C        3.65435219       2.06989861      -1.64380181
H        3.07411003       2.57618141      -0.84007645
H        4.32547188       1.38453484      -1.12682843
O        4.48695183       2.95498466      -2.36848497
H        3.92929268       3.41045189      -3.02696538
C        2.71999931       1.19551468      -2.53169107
H        2.10346985       1.91520500      -3.15118313
H        3.34252739       0.58866692      -3.22810316
C        1.57838249       0.27284622      -1.93521070
H        0.97042084       0.95305634      -1.26157713
H        2.00646591      -0.52066803      -1.26645958
C        0.68582344      -0.34303856      -2.99172211
H        1.21344566      -0.79413795      -3.82756019
H        0.12268829       0.43844223      -3.48627472
C       -0.16182137      -1.44872475      -2.42295051
H        0.56791115      -2.32211494      -2.33265495
H       -0.54758263      -1.12562752      -1.44987094
C       -1.37870026      -1.75228691      -3.35963154
H       -0.89903831      -2.07972145      -4.35561705
H       -1.85276222      -0.85270119      -3.66224194
C       -2.40084839      -2.69951057      -2.73677111
H       -2.68468666      -2.36883354      -1.75556803
H       -3.34684372      -2.80107498      -3.29989147
C       -1.71540070      -4.07233429      -2.78195381
H       -0.85272408      -4.03540993      -2.10464740
H       -2.34208107      -4.83850670      -2.36555123
H       -1.46945953      -4.25027275      -3.86061049
