54
Properties=species:S:1:pos:R:3 pbc="F F F"
C       -1.74385262      -1.04516315       3.15785599
H       -1.29000664      -1.24818516       4.18292236
H       -1.34468973      -0.12896442       2.67472267
O       -3.14720058      -0.77452564       3.15592575
H       -3.51687908      -1.39184475       3.88148880
C       -1.35384047      -2.28563023       2.32888222
H       -1.73526001      -3.14998722       2.85549164
H       -1.91904247      -2.36501026       1.41072464
C        0.19050765      -2.46125889       2.10720634
H        0.39052582      -3.36404419       1.53736877
H        0.66047740      -2.70439339       3.11729240
C        0.94579720      -1.18575573       1.61663818
H        1.00736189      -0.41534710       2.35714340
H        0.27456999      -0.76873016       0.87853622
C        2.41122293      -1.47790718       1.03335571
H        2.99360323      -1.80266953       1.92823029
H        2.33968878      -2.38107967       0.48152542
C        2.95554447      -0.31569099       0.27054596
H        2.29066896      -0.22401047      -0.65198326
H        3.98296165      -0.55658054      -0.08968353
C        2.86986876       1.01219940       1.07121086
H        1.79336548       1.30191612       1.25683403
H        3.37637758       0.83446789       2.06822968
C        3.77668905       2.16586781       0.52465439
H        4.76649046       2.13769245       1.06088257
H        3.86812830       1.95138168      -0.53284073
H        3.39447117       3.18798733       0.57408333
C        0.11065912      -2.13685703      -3.65363121
H        1.04877424      -1.77164173      -3.10476303
H       -0.47077656      -3.01521492      -3.12356377
O        0.75470114      -2.60378075      -4.84762001
H        0.38480711      -3.46063042      -4.83421326
C       -0.83395135      -1.03592014      -3.93653107
H       -0.33957577      -0.39816570      -4.69220161
H       -1.70388865      -1.54852390      -4.40358353
C       -1.29414129      -0.17843342      -2.74813843
H       -1.61212373      -0.82384872      -1.89150047
H       -2.12342381       0.47929668      -3.08606720
C       -0.16232467       0.73257732      -2.26768875
H        0.32587624       1.23579311      -3.13864517
H        0.60346270       0.14496136      -1.75657654
C       -0.63754535       1.89803600      -1.44156265
H        0.31192732       2.32330799      -1.03960991
H       -1.16383457       2.62431622      -2.12631607
C       -1.64121175       1.66097546      -0.27881050
H       -1.24415851       0.79420185       0.31585693
H       -2.61671329       1.39156055      -0.62689209
C       -1.67854893       2.90232944       0.51401901
H       -0.63476086       3.13632298       1.01394272
H       -1.90827322       3.81956196      -0.17041206
C       -2.73418164       2.84644794       1.58657646
H       -3.71575189       2.88890743       1.06360626
H       -2.66582179       1.85717773       2.09420776
H       -2.59679437       3.69260883       2.32267189
