54
Properties=species:S:1:pos:R:3 pbc="F F F"
C        3.49776649      -0.37151718       0.67447567
H        4.35023499       0.29203987       0.68330288
H        2.61844635       0.06754875       1.19631386
O        3.70406342      -1.58134270       1.36422920
H        3.51481628      -1.32946968       2.27192116
C        2.97518730      -0.80032158      -0.73254967
H        3.73903275      -1.33731842      -1.36755371
H        2.11995316      -1.51889801      -0.54924965
C        2.48488617       0.48726082      -1.47340202
H        3.38377762       0.98519135      -1.89059830
H        1.94000626       1.21268082      -0.80420685
C        1.44763947       0.04552650      -2.55143929
H        0.74188995      -0.66460800      -2.05467319
H        1.97123718      -0.59227943      -3.28454113
C        0.58495712       1.08474350      -3.17854023
H        0.17053032       1.70422173      -2.36984444
H        1.32087708       1.73483658      -3.74830055
C       -0.51504135       0.42564011      -4.01004791
H       -1.13967705      -0.16072464      -3.33477211
H       -0.10857773      -0.13515472      -4.84293175
C       -1.48450661       1.48597336      -4.45437622
H       -0.99831581       2.25141716      -5.02543926
H       -2.15578461       0.96204185      -5.19311810
C       -2.40943146       2.00208282      -3.34611702
H       -3.27249146       2.48799515      -3.88019371
H       -2.87612152       1.19607162      -2.74873543
H       -1.83321762       2.73059845      -2.75245667
C        0.43095779      -3.14157867       4.12166786
H        0.10255432      -2.48171997       4.98629379
H       -0.09905434      -4.12440872       4.12792206
O        1.77832794      -3.45805836       4.40701103
H        1.93633270      -3.80389404       5.29381371
C        0.37047958      -2.46877098       2.76889420
H        0.79092789      -1.42908287       2.83045006
H        1.01541138      -2.99442387       2.05772877
C       -1.09093094      -2.28871536       2.25991249
H       -1.69974899      -1.84453964       3.09832764
H       -1.41992569      -3.33991051       2.19557953
C       -1.33905411      -1.43776321       0.96903324
H       -2.31579399      -1.71540451       0.62576866
H       -0.66588974      -1.81942558       0.15737343
C       -1.02249146       0.08738327       1.14154625
H       -1.08909607       0.24102783       2.17687607
H        0.03918076       0.25706863       0.84335709
C       -1.97189331       1.10789490       0.47317696
H       -2.99982452       0.69469643       0.72884369
H       -1.76651382       0.99850273      -0.64778137
C       -1.70872688       2.59438133       0.92853069
H       -0.59589005       2.72955513       0.78309059
H       -2.14865685       3.29017639       0.21782494
C       -2.06151962       2.88313293       2.41880798
H       -1.60959053       3.86293983       2.75994873
H       -3.11268425       2.79637909       2.60637283
H       -1.51923370       2.14046669       3.07245636
