54
Properties=species:S:1:pos:R:3 pbc="F F F"
C       -1.59449577       0.55406570      -3.71283174
H       -2.45370674       1.24858856      -3.41101217
H       -0.58316612       1.17261219      -3.57144070
O       -1.62036514       0.10942650      -5.07482529
H       -2.55788612      -0.08807278      -5.31313610
C       -1.51056480      -0.66894341      -2.79811525
H       -2.11151314      -1.63456726      -3.01797819
H       -0.37232399      -0.95112514      -2.82235670
C       -1.87209129      -0.23140907      -1.33149767
H       -2.90470314       0.16111374      -1.18770158
H       -1.21200752       0.57308388      -1.06804788
C       -1.69426537      -1.40869236      -0.39434338
H       -0.67180061      -1.76258469      -0.45891464
H       -2.35753441      -2.26116085      -0.65393150
C       -2.04683113      -1.09596062       1.05234814
H       -2.00987434      -2.14177895       1.56973958
H       -1.35682487      -0.40175056       1.55600905
C       -3.49314880      -0.69453049       1.19231963
H       -4.12985802      -1.31347275       0.45936060
H       -3.55720139       0.37683773       0.89893055
C       -3.98185158      -0.92258835       2.63655829
H       -5.12404823      -0.79432678       2.62399507
H       -3.83008194      -2.04836845       2.90839267
C       -3.42086029       0.00546455       3.68029618
H       -2.33384514      -0.18541527       3.79516292
H       -3.47276306       1.12275887       3.48080659
H       -3.96085167      -0.24360466       4.62922192
C        1.81147385      -0.43517876       4.15150166
H        2.52092552       0.42033100       4.36175537
H        0.77289963      -0.04938126       4.31815720
O        2.00558662      -1.51178837       5.04123402
H        2.62387657      -2.22689247       4.70394039
C        2.10216331      -0.83499146       2.71611571
H        3.11005211      -1.36414909       2.75486732
H        1.37777138      -1.58051205       2.35791802
C        1.97547531       0.28668976       1.64763284
H        2.81497002       0.98857689       1.80225396
H        0.91076469       0.80673122       1.77382016
C        2.10096169      -0.23942757       0.20200706
H        1.01873970      -0.49585629      -0.04369044
H        2.79230309      -1.10149097       0.06831264
C        2.60392570       0.84972572      -0.73013008
H        2.01762199       1.76227474      -0.49466276
H        3.68370247       0.99241829      -0.56670451
C        2.38217735       0.47461510      -2.27478504
H        1.27379417       0.42464638      -2.44181204
H        2.81748772      -0.51307869      -2.47664833
C        3.14294243       1.42648125      -3.24082232
H        4.25148964       1.10666561      -3.05830908
H        2.88327217       1.24049759      -4.31049967
C        3.30483055       2.98145485      -2.98033643
H        3.85826302       3.20672321      -2.12441826
H        3.75193214       3.46407318      -3.89118147
H        2.32509422       3.44522953      -2.93254924
