54
Properties=species:S:1:pos:R:3 pbc="F F F"
C        1.29981613       2.15702391      -3.75255775
H        1.37401962       2.68669462      -2.78812218
H        2.24311829       1.67918682      -4.01118946
O        1.02374649       3.07189083      -4.75227880
H        1.40322495       2.80187273      -5.60657215
C        0.14118576       1.10333252      -3.63064957
H       -0.79510117       1.71241236      -3.38593483
H       -0.13617325       0.69173431      -4.64946842
C        0.39483261       0.12128448      -2.53370667
H        0.25946426       0.66105556      -1.58949566
H        1.48205948      -0.21131659      -2.63839626
C       -0.62774277      -1.00003839      -2.52216339
H       -0.81252670      -1.47523785      -3.58931923
H       -1.64242554      -0.68096352      -2.17157173
C       -0.11106873      -2.15950489      -1.63747025
H        0.88629913      -2.29867435      -2.02186012
H       -0.12285614      -1.86350107      -0.66505527
C       -0.87635422      -3.54241228      -1.69704819
H       -1.10264206      -3.87287617      -2.75060368
H       -1.88443375      -3.42893815      -1.15401649
C       -0.11500168      -4.72108984      -1.01914024
H       -0.67461777      -5.60172653      -1.17606258
H        0.84204102      -4.93899202      -1.56722069
C        0.25530624      -4.45909929       0.42396069
H        0.37999725      -5.42882967       1.02926254
H        1.22902298      -3.86648250       0.40727043
H       -0.58095169      -3.87570357       0.83893013
C       -2.31575012       3.53685760       0.46791363
H       -1.49608994       4.29426193       0.32196808
H       -2.03120804       2.59577179       0.03877449
O       -3.46462059       4.09305000      -0.10830021
H       -3.43235397       3.87958145      -1.07597065
C       -2.52647400       3.29108238       1.94143772
H       -3.00009537       4.13983822       2.44434834
H       -3.21148682       2.43232059       2.00289249
C       -1.26349258       2.72243309       2.68243790
H       -1.40795135       2.52464771       3.75961113
H       -0.41930389       3.54606342       2.56896496
C       -0.76536179       1.45389080       2.01384926
H       -0.41304398       1.67718792       1.00200558
H       -1.57966614       0.74226236       1.89767456
C        0.45217133       0.88039541       2.82303619
H        1.17245102       1.64431858       3.14428520
H        0.09071732       0.36467028       3.70517159
C        1.13384247      -0.08173370       1.94357300
H        1.54881668       0.24534369       0.92654514
H        0.50339890      -0.92576981       1.66649628
C        2.50578308      -0.64150333       2.54290104
H        2.85642242      -1.60398674       2.05578804
H        3.20029068       0.29442310       2.42918015
C        2.50128555      -0.98542094       4.02213287
H        3.55395126      -1.24681926       4.40228081
H        2.13001633      -0.21122265       4.73065376
H        1.94590759      -1.92301464       4.26092911
