54
Properties=species:S:1:pos:R:3 pbc="F F F"
C        0.98182487       0.56051636       4.30846596
H        1.26050568       1.46867561       4.92424202
H       -0.08034229       0.54416847       4.06456661
O        1.27453995      -0.50598907       5.11538124
H        0.68748093      -0.26712036       5.87629700
C        1.91505051       0.56722355       3.12183285
H        1.65149593       1.45030499       2.50039673
H        2.95383549       0.65916538       3.43872643
C        1.87199688      -0.70268822       2.39096832
H        0.83587742      -0.96603966       2.23474884
H        2.36190414      -1.53035069       3.01301050
C        2.56047535      -0.56806755       1.02132273
H        3.61325550      -0.38143826       1.23756456
H        2.23781300       0.41606045       0.60790682
C        2.25577259      -1.70396042       0.08812547
H        2.80753899      -2.62120819       0.35478735
H        1.15954971      -2.02097702       0.06237721
C        2.49152374      -1.22467232      -1.35710287
H        3.57831478      -1.11168671      -1.57922935
H        1.97099876      -0.26580620      -1.39076233
C        1.85464573      -2.12049389      -2.49859905
H        0.87353706      -2.48410320      -2.08671331
H        1.78726387      -1.40982914      -3.36228943
C        2.63500023      -3.42324066      -2.75736666
H        3.67227840      -3.22165298      -3.06181264
H        2.64186573      -4.01938725      -1.81983328
H        2.11000919      -3.94095516      -3.61262083
C       -2.73093987       2.78684521       1.41745472
H       -2.65858173       2.95616627       0.33684635
H       -3.72068739       2.30819225       1.60753298
O       -2.54674006       3.97114277       2.14201736
H       -3.32396984       4.64477825       2.11853504
C       -1.78273201       1.61925411       1.87519598
H       -0.72839451       1.93166828       1.65643835
H       -1.80237865       1.54775429       3.01034451
C       -2.12875891       0.18214321       1.31013107
H       -3.02189541      -0.31075096       1.75951052
H       -1.38237333      -0.46951866       1.54303265
C       -2.32116270       0.08538151      -0.24169374
H       -3.12272882       0.74776363      -0.57365465
H       -2.66147518      -0.95357800      -0.37062120
C       -1.04253149       0.42039680      -0.87724090
H       -0.50966549       1.40089226      -0.58409500
H       -0.18873405      -0.19745636      -0.43758488
C       -1.14550591       0.09247875      -2.39071703
H       -1.67253733      -0.86007404      -2.56318235
H       -0.16077805       0.07984066      -2.85191059
C       -2.04823112       1.07491589      -3.16676354
H       -3.17728329       1.02687263      -2.73262548
H       -1.67412138       2.15597534      -3.13580275
C       -2.10883188       0.73769474      -4.63121080
H       -2.94849300       1.18970394      -5.13187885
H       -1.08900833       1.01463699      -5.08314753
H       -2.26540804      -0.35950279      -4.83929539
