54
Properties=species:S:1:pos:R:3 pbc="F F F"
C       -1.59797096       4.34370422      -0.46925163
H       -2.47551537       3.76371765      -0.67293739
H       -1.34590149       4.11426544       0.62470818
O       -1.99627686       5.66425323      -0.71782684
H       -2.67787170       5.85716629      -0.06317329
C       -0.61721230       3.82389069      -1.54649353
H       -0.93572426       4.03505325      -2.54961777
H        0.41747475       4.26906204      -1.38744354
C       -0.26324654       2.34388161      -1.24892044
H       -1.23533821       1.81839371      -1.33078003
H        0.13209534       2.24422455      -0.17021942
C        0.75951004       1.59683037      -2.11946106
H        1.69425583       2.07366943      -1.87051964
H        0.48152924       1.63083076      -3.18631363
C        0.87821388       0.00946617      -1.92983055
H        1.11012268      -0.12675476      -0.83669090
H       -0.10985756      -0.38293266      -2.09833527
C        1.88111877      -0.55818176      -2.89233017
H        2.89216423      -0.13894653      -2.64730644
H        1.59681892      -0.27266884      -3.93734360
C        2.00131226      -2.12412643      -2.92081261
H        2.20397377      -2.54722214      -1.84100342
H        0.96578217      -2.55227470      -3.15756035
C        3.03012276      -2.68351746      -3.84428596
H        2.78727913      -2.51973152      -4.87657166
H        4.00987244      -2.31349373      -3.63088989
H        3.09942818      -3.72054672      -3.61374474
C        1.69627380       1.17772102       3.71796417
H        1.38079453       0.30419922       4.35359955
H        2.50647354       0.93811417       2.99739838
O        2.13708115       2.18317032       4.58361435
H        2.41757011       1.74810219       5.39340210
C        0.44728470       1.69558144       3.02878189
H       -0.43018723       1.82388115       3.73131561
H        0.58319855       2.70055008       2.50530815
C       -0.17782784       0.67032814       2.00461769
H        0.45235252       0.53660011       1.16304970
H       -1.17168808       0.96433449       1.61159325
C       -0.57609177      -0.69408417       2.59667587
H       -1.18799019      -0.45342636       3.42927170
H        0.31973076      -1.26317406       3.03126526
C       -1.21932983      -1.52389145       1.49051094
H       -2.22876930      -1.20778656       1.13776779
H       -0.53286743      -1.47922134       0.57133484
C       -1.33159256      -2.99930763       1.86129189
H       -2.09064865      -3.18072701       2.68088913
H       -0.29837990      -3.23552132       2.25510788
C       -1.76604462      -3.92531967       0.71084595
H       -0.86062241      -3.85863686       0.00926399
H       -1.93548775      -4.99415398       1.11642456
C       -2.96053696      -3.46106529      -0.10214043
H       -2.76811409      -2.53330994      -0.67659569
H       -3.28462410      -4.23319626      -0.79771233
H       -3.80636215      -3.34771729       0.53004837
