54
Properties=species:S:1:pos:R:3 pbc="F F F"
C        3.10869980       1.43847084       1.38199997
H        3.06194115       0.48613262       2.05312157
H        4.11063957       1.83958340       1.06870937
O        2.50084496       2.51768398       2.02820206
H        3.01226044       2.54925060       2.85695839
C        2.44525909       1.22723866       0.08969784
H        1.41400909       0.87144375       0.39537144
H        2.33900642       2.10234928      -0.61859035
C        3.15474129       0.09551048      -0.72761250
H        4.13348007       0.51524067      -0.99520302
H        2.54810715      -0.01370525      -1.63832283
C        3.48137665      -1.27967548      -0.07008934
H        3.95526695      -1.01484203       0.91544342
H        4.11280632      -1.87751102      -0.71201229
C        2.19571877      -2.08398151       0.37030125
H        2.44683838      -2.85246372       1.12671280
H        1.40866280      -1.42548561       0.86864853
C        1.35958862      -2.82473946      -0.73050117
H        2.05089569      -3.40709114      -1.41287613
H        0.82519531      -2.10898304      -1.40667820
C        0.29561806      -3.79630470      -0.18147278
H        0.95675468      -4.55316448       0.36601448
H       -0.21256256      -3.20663166       0.59685612
C       -0.59821320      -4.51650715      -1.13558674
H       -1.23365784      -5.22194195      -0.60932350
H       -1.27945709      -3.76453972      -1.58263493
H       -0.03753090      -5.10026360      -1.88265896
C       -0.59220505       4.33826923       2.16612244
H       -1.18315506       5.31292820       2.46676159
H       -0.64767838       3.51834965       2.94107723
O        0.72434616       4.64420033       1.82065296
H        1.30309677       3.89574718       1.96405125
C       -1.32003212       3.88860798       0.84985447
H       -2.41832733       3.74862003       1.11650276
H       -1.21766281       4.70457935       0.06119919
C       -0.68642426       2.60720348       0.28292847
H       -0.16006088       2.06497192       1.06281090
H        0.08730888       2.90412998      -0.42830944
C       -1.79795456       1.60129070      -0.16242313
H       -2.49373436       2.01325321      -0.94038773
H       -2.37775040       1.42987537       0.73819065
C       -1.27076530       0.23168850      -0.48986244
H       -0.84523201       0.25794315      -1.49381733
H       -0.57136726      -0.08001709       0.29293442
C       -2.38842201      -0.77756882      -0.49677372
H       -2.71906471      -1.12560177       0.49319744
H       -1.96136475      -1.75302029      -0.89833069
C       -3.55695152      -0.46814442      -1.35700703
H       -4.36288643       0.12213230      -0.71388340
H       -3.17389488       0.14030552      -2.21102190
C       -4.25333023      -1.72129250      -1.78370667
H       -5.25342560      -1.38098431      -2.19207430
H       -3.86768341      -2.30743694      -2.58623552
H       -4.55166054      -2.40514755      -0.91690922
