54
Properties=species:S:1:pos:R:3 pbc="F F F"
C       -1.33412409       2.48563957       0.88172531
H       -1.56382895       2.85338783      -0.15211487
H       -1.91606712       1.57251549       1.02701187
O       -1.71630692       3.42148209       1.84757805
H       -2.69218493       3.31527138       2.00723267
C        0.13480186       2.16908073       1.13583374
H        0.74027205       3.13698578       1.02967644
H        0.46401215       1.85466385       2.16191673
C        0.68188620       1.19666290       0.07447433
H        0.05175924       0.37537766      -0.29658890
H        1.64564943       0.74939346       0.39968300
C        0.94331932       1.94203568      -1.27092552
H        1.64548779       2.77458572      -1.10056305
H        0.00646830       2.41613007      -1.59922028
C        1.41231060       1.01218414      -2.42078018
H        1.93316364       0.15568542      -1.95590401
H        0.52374315       0.61174583      -2.92093277
C        2.40110922       1.72661400      -3.34554863
H        3.24764109       2.06386757      -2.70878983
H        1.81315374       2.62435150      -3.69359970
C        2.74057293       0.89068222      -4.62508392
H        3.29531622       0.06274033      -4.28763199
H        1.74665785       0.47077751      -5.00897026
C        3.49889660       1.72873116      -5.64253616
H        2.88887644       2.56267738      -6.10195923
H        4.41679144       2.16954422      -5.17767715
H        3.88975286       1.07734871      -6.46581650
C       -4.02886868      -0.29122162       4.08344269
H       -4.28390551      -1.26390648       4.51073456
H       -3.83280921       0.39421654       4.93170357
O       -5.15864897       0.19474220       3.37074852
H       -5.97161484      -0.10128403       3.76082993
C       -2.83245420      -0.38742447       3.15360832
H       -3.22752142      -0.95393562       2.22547150
H       -2.59902668       0.64411354       2.80519104
C       -1.65475774      -1.15593338       3.82843781
H       -2.00517368      -2.20716476       3.98750114
H       -1.38716316      -0.63680649       4.75590324
C       -0.38499689      -1.40679169       2.95660019
H        0.27598047      -2.01013947       3.60088348
H        0.27463818      -0.49816132       2.75790024
C       -0.69494915      -1.97364044       1.50671387
H       -1.38973665      -2.85521317       1.80200958
H       -1.37666464      -1.26851463       0.99908447
C        0.53779650      -2.43270111       0.68370247
H        1.19396734      -3.05068970       1.24499512
H        1.21084213      -1.56969261       0.39837646
C        0.25533628      -3.21252441      -0.68749237
H       -0.21210289      -4.13811684      -0.33079529
H       -0.45079756      -2.74062538      -1.31570244
C        1.49357939      -3.52718925      -1.54202843
H        1.92533493      -2.70318985      -2.09747314
H        2.23452473      -3.98523140      -0.88935280
H        1.19002962      -4.28306580      -2.29148865
