54
Properties=species:S:1:pos:R:3 pbc="F F F"
C        1.84460068      -1.87669086       2.02148438
H        1.77300644      -2.95577526       2.42945862
H        2.14094162      -1.88467503       0.94061852
O        2.84515381      -1.23632336       2.73402214
H        3.65554810      -1.72957706       2.61238861
C        0.51759529      -1.22694683       2.27282333
H        0.46281433      -1.22354984       3.38934326
H        0.46105385      -0.16964054       2.00082016
C       -0.64924240      -2.08063984       1.80973053
H       -1.53913879      -1.66836739       2.36387444
H       -0.52402496      -3.16778278       2.11686325
C       -0.97363472      -2.03461838       0.31519699
H       -0.01021576      -2.30175686      -0.19038391
H       -1.20278168      -1.04333401      -0.05669403
C       -2.15298653      -2.95025730      -0.01334190
H       -1.95529747      -4.00557137       0.35485458
H       -3.03404999      -2.44929790       0.44900894
C       -2.37084961      -2.93528748      -1.50880432
H       -1.51748657      -3.35083580      -2.09275055
H       -2.61141586      -1.84826946      -1.80537796
C       -3.67781830      -3.60610580      -1.93077087
H       -3.85728073      -3.45610142      -2.99826050
H       -3.63746262      -4.74560738      -1.89841270
C       -5.02282333      -3.17784786      -1.29957581
H       -5.04074860      -2.03654861      -1.30010414
H       -5.89195061      -3.52898312      -1.79710960
H       -5.11925697      -3.44083977      -0.25179482
C        1.36795807       4.87796497       2.11287880
H        1.14352417       5.55622959       1.23572350
H        0.44190407       4.41804409       2.54408264
O        2.00335503       5.68501377       3.09805679
H        1.83113289       5.18238354       3.96247482
C        2.29440308       3.74145794       1.64784241
H        3.00084686       4.21025181       0.87808609
H        2.81297874       3.24481678       2.50424576
C        1.48098373       2.66121960       0.88881493
H        0.74040985       2.23546314       1.54856110
H        2.09354782       1.84384251       0.61335373
C        0.82289696       3.25929737      -0.38735199
H        1.59845734       3.66178226      -1.02061272
H        0.31347275       4.16839314      -0.14546585
C       -0.05967903       2.25736141      -1.17480469
H       -0.90173912       1.90072536      -0.52117348
H       -0.51992798       2.82121372      -1.99004173
C        0.57843971       0.90953255      -1.49969864
H       -0.15041733       0.20869255      -2.08781815
H        0.82485962       0.29346371      -0.65794373
C        1.84369087       1.11993217      -2.32699013
H        1.79756355       1.98723125      -2.93505859
H        2.64179039       1.14588451      -1.54029655
C        2.20310974      -0.08399677      -3.20290184
H        3.24740219       0.00601101      -3.55106735
H        2.04539490      -0.98903656      -2.59025955
H        1.59177399      -0.19197178      -4.07009506
