54
Properties=species:S:1:pos:R:3 pbc="F F F"
C       -1.70369172      -1.33048344       3.48570633
H       -1.23507738      -1.84183598       4.42640495
H       -1.12571037      -0.33665943       3.41226768
O       -3.04624414      -0.89346886       3.73267174
H       -3.30339003      -1.40589523       4.51813698
C       -1.53794146      -1.96247005       2.11448860
H       -2.28600883      -2.82013035       2.03944016
H       -1.87104368      -1.31299877       1.27351379
C       -0.15086365      -2.49289322       1.80550957
H       -0.10363126      -2.98065281       0.84200859
H        0.19747066      -3.29835987       2.54773140
C        0.92598438      -1.38281822       1.78579521
H        0.86193061      -0.83786011       2.70885849
H        0.71180129      -0.62907696       0.97344208
C        2.42710471      -1.78142071       1.56371498
H        2.79312968      -2.14762211       2.53224754
H        2.52044272      -2.53155422       0.80031395
C        3.32191825      -0.55543232       1.14307976
H        3.25947118      -0.43642902       0.02478027
H        4.46883488      -0.71689034       1.35225105
C        3.04507756       0.79762650       1.88726616
H        2.02219224       1.15578175       1.71220398
H        3.16071057       0.56617260       2.97734261
C        4.04119205       1.86563683       1.40543556
H        5.12581921       1.52543736       1.43686485
H        3.83900380       2.18457794       0.45378113
H        4.05498886       2.82486153       1.97532272
C       -0.84901357      -1.87043858      -4.19872284
H       -0.14028406      -1.82101631      -3.30606651
H       -1.82623935      -2.10364056      -3.86335564
O       -0.34828830      -2.73515415      -5.16864395
H       -0.60488796      -3.61028385      -4.77899933
C       -0.77857995      -0.48835278      -4.90940285
H        0.22235441      -0.36478329      -5.36627579
H       -1.41721475      -0.47593212      -5.81305122
C       -1.10943878       0.65320110      -3.97427559
H       -2.20882273       0.75134754      -3.95981407
H       -0.74255431       1.59606266      -4.46085548
C       -0.59404528       0.46487904      -2.64204216
H        0.43408775       0.08425999      -2.67561340
H       -1.13113523      -0.36586094      -2.13988876
C       -0.70572639       1.71696568      -1.74360847
H        0.34510159       2.11714745      -1.85311508
H       -1.43263066       2.38829613      -2.28260994
C       -1.23538566       1.59544563      -0.23683357
H       -0.56015658       0.98047543       0.43259430
H       -2.27378535       1.07124329      -0.20024681
C       -1.60174084       2.94711018       0.36024284
H       -0.77780938       3.67155743       0.27021027
H       -2.38656926       3.44796276      -0.33474541
C       -2.11849880       2.80036831       1.71972656
H       -2.15494871       3.82582188       2.20602417
H       -3.08658361       2.28641510       1.69062042
H       -1.33065784       2.21172905       2.29837799
