54
Properties=species:S:1:pos:R:3 pbc="F F F"
C       -3.01783562       3.67977333      -0.41208887
H       -1.94378662       3.23510170      -0.45963001
H       -3.52921867       3.82539558      -1.26215649
O       -2.86385345       4.87329292       0.37790012
H       -2.17673492       4.73431969       1.03639603
C       -3.70428085       2.63438988       0.44000530
H       -3.24461746       2.43977165       1.43780041
H       -4.79571152       2.75255013       0.50166941
C       -3.59064102       1.28850365      -0.24967051
H       -3.87456703       1.50733185      -1.26751900
H       -4.29250526       0.55093956       0.18577051
C       -2.20540810       0.58090401      -0.27167130
H       -1.91687965       0.35893631       0.73812199
H       -1.48295212       1.27973557      -0.70738983
C       -2.30824471      -0.71193886      -1.19249678
H       -3.02185059      -1.42844200      -0.92337179
H       -2.50983047      -0.54534340      -2.27106714
C       -0.92283630      -1.43861961      -1.15136957
H       -0.85424614      -1.94321251      -0.13492680
H       -0.11042786      -0.69775581      -1.28988171
C       -0.76791763      -2.55194473      -2.21282196
H       -0.96791077      -2.13643074      -3.21375990
H        0.26291656      -2.76142311      -2.26154852
C       -1.54440117      -3.86167145      -2.01064968
H       -2.60067749      -3.69906807      -1.89873505
H       -1.37114525      -4.61326027      -2.74989653
H       -1.33753204      -4.19168282      -1.00571203
C       -0.38450623       2.50663185       2.69142532
H       -1.12994957       1.91614723       2.28500843
H       -0.11417198       2.27994347       3.77875328
O       -0.80379868       3.83870125       2.48582172
H       -1.59019661       4.01463127       3.03283882
C        0.82445526       2.31861305       1.80837345
H        0.57791328       2.37653732       0.73771477
H        1.64559555       3.08815956       1.94827557
C        1.51531792       0.94956589       1.92035484
H        0.79019356       0.19612694       2.34961033
H        2.26637650       1.05388832       2.72652626
C        2.21948433       0.48882484       0.66655922
H        2.84499741       1.28116989       0.23671818
H        1.44738197       0.25206566      -0.09141636
C        3.14852905      -0.72744179       0.90525913
H        4.14439011      -0.38048744       1.15644741
H        2.76739883      -1.34075928       1.75264168
C        3.16137123      -1.56426430      -0.35189629
H        3.39581299      -0.83362007      -1.16213703
H        2.11339760      -1.98124504      -0.58943415
C        4.27961731      -2.63448906      -0.21635866
H        5.12264633      -2.07274055       0.08184910
H        3.97896576      -3.23780632       0.66509342
C        4.56960678      -3.60515785      -1.41942835
H        4.90693855      -3.05508232      -2.27548027
H        5.35527229      -4.28474617      -1.14569998
H        3.64012527      -4.00361061      -1.74865770
