54
Properties=species:S:1:pos:R:3 pbc="F F F"
C        0.66293907       3.36414528       2.26421928
H        0.06584740       3.58066368       1.33626747
H        0.02416611       3.41386414       3.13388443
O        1.78182602       4.28416443       2.41548347
H        1.47260666       5.25027847       2.38261795
C        1.27347946       1.88097191       2.22745132
H        1.87594986       1.90637398       1.32753181
H        1.93481445       1.87825203       3.09453392
C        0.22684860       0.73021698       2.34481239
H       -0.48990631       0.83444214       1.50058365
H       -0.37532806       0.84152603       3.21025467
C        0.71930122      -0.80394363       2.38910675
H        1.67264557      -0.83130264       2.95146751
H        1.05810165      -0.98757172       1.29779243
C       -0.39507294      -1.75939751       2.88173294
H       -0.42041206      -1.63571167       3.94197464
H       -1.39354134      -1.55518532       2.37491417
C        0.08089066      -3.17528152       2.61885834
H       -0.60627747      -3.82888794       3.08667564
H        1.10116196      -3.47740936       3.10383415
C        0.35811615      -3.48242569       1.18644524
H       -0.48062515      -3.30347824       0.52912331
H        1.19166183      -2.77218246       0.89529037
C        0.72743225      -4.90775299       0.84674454
H        1.81628036      -5.14863968       1.13943100
H       -0.03661537      -5.58480263       1.23952675
H        0.63620758      -5.02029419      -0.27057838
C       -0.68045807       4.24388504      -1.19059181
H       -1.13374329       4.45312500      -2.23196602
H       -1.34706879       3.59241676      -0.63703537
O       -0.57782936       5.49369431      -0.49877930
H       -1.25898743       5.41283417       0.25600052
C        0.59556389       3.57458878      -1.58273125
H        1.26729965       4.19125366      -2.24745941
H        1.09136963       3.26893616      -0.66545868
C        0.34185791       2.23777008      -2.37964058
H        1.29299545       1.66005898      -2.51469231
H       -0.18679428       2.52260590      -3.35819626
C       -0.59811020       1.23423576      -1.81107140
H       -1.64262009       1.62123680      -1.91712952
H       -0.33061218       1.01718712      -0.75852776
C       -0.52676964      -0.07797432      -2.58996391
H       -0.66728973       0.12993050      -3.67909622
H        0.50444794      -0.43370056      -2.44191742
C       -1.60790062      -1.05228233      -2.11124802
H       -2.59084320      -0.57437897      -2.30958557
H       -1.40434265      -1.21160507      -0.96184158
C       -1.47772598      -2.43772316      -2.82652092
H       -2.29689407      -3.12646866      -2.51624680
H       -1.58803749      -2.35106659      -3.95105743
C       -0.17780876      -3.13205338      -2.69276428
H       -0.07441902      -3.99544716      -3.36080742
H        0.67518997      -2.46123123      -2.84608269
H       -0.08294296      -3.49052429      -1.62594414
