17
Properties=species:S:1:pos:R:3 pbc="F F F"
C        3.95100000       1.40700000       1.67400000
H        4.38400000       0.54300000       2.22200000
H        3.81900000       1.11800000       0.61000000
H        4.67500000       2.24800000       1.71900000
C        2.60600000       1.81300000       2.28800000
H        2.72900000       2.03100000       3.37200000
H        1.92100000       0.93700000       2.20900000
C        1.92800000       3.01200000       1.60000000
H        2.29400000       3.09300000       0.55300000
H        0.83300000       2.81100000       1.55300000
C        2.11400000       4.35600000       2.32800000
H        1.51800000       5.12800000       1.78800000
H        1.68300000       4.26600000       3.35100000
C        3.56200000       4.84400000       2.43800000
H        3.60100000       5.83500000       2.93800000
H        4.01600000       4.94000000       1.42900000
H        4.17200000       4.13100000       3.03200000
