16
Properties=species:S:1:pos:R:3 pbc="F F F"
C        1.30538750       1.37665939      -1.00375938
C        1.44104004       1.86459827       0.44249344
H        2.19217491       0.81426144      -1.24140167
H        1.23078156       2.28967571      -1.68576431
H        0.48180580       0.66254234      -1.17786598
O        2.42264366       2.38693142       0.95414925
O        0.20597267       1.81352901       1.08686256
H        0.46325111       2.16001606       1.95340347
C       -0.84615135      -2.25831842      -0.61366844
C       -1.14200592      -1.36206150       0.57838249
H       -1.79803658      -2.63798809      -1.00785828
H       -0.06022644      -2.99082184      -0.29161644
H       -0.39791489      -1.62195778      -1.40032196
O       -0.38154984      -1.12276363       1.49473381
O       -2.42976570      -0.86763477       0.51860428
H       -2.68738174      -0.50665379       1.39365196
