16
Properties=species:S:1:pos:R:3 pbc="F F F"
C       -0.35612869      -1.87518358      -1.07936859
C        1.06831551      -2.04170370      -0.55034447
H       -0.99282837      -2.34972143      -0.31441116
H       -0.37085152      -2.48131180      -2.02173805
H       -0.63630676      -0.84019613      -1.10766602
O        1.38252068      -2.12201834       0.62348175
O        2.00156784      -2.03278017      -1.60211372
H        2.90270805      -2.07207680      -1.28970718
C       -1.47566032       1.54595900       1.08078384
C       -0.10193443       1.98678541       0.71319008
H       -1.59896278       0.46148729       1.10023880
H       -2.19089127       1.93824625       0.38589668
H       -1.75528145       1.86575270       2.12869072
O        0.68910217       1.26721430       0.24618530
O        0.24352646       3.32590151       0.97076035
H        1.19110680       3.42364073       0.71614647
