16
Properties=species:S:1:pos:R:3 pbc="F F F"
C        1.46085072       1.89842510      -0.42172432
C        1.60455513       0.41497898      -0.51053810
H        1.91149616       2.32160282      -1.29354286
H        1.84862804       2.25611782       0.50396729
H        0.40237331       2.23884296      -0.33591270
O        2.18051720      -0.29093361       0.32880974
O        1.11671066      -0.06886005      -1.70462227
H        1.33330059      -0.99074841      -1.72159386
C       -2.03384495      -0.58108616      -0.02749252
C       -1.24682999      -1.42621326       0.90047836
H       -1.60275459       0.38119125      -0.33176231
H       -3.09584618      -0.54873180       0.32362938
H       -2.03477001      -1.10525990      -0.96987724
O       -0.85073566      -2.56425762       0.64025879
O       -0.81642151      -0.72503090       2.03376198
H       -0.17722130      -1.21003056       2.58613014
