16
Properties=species:S:1:pos:R:3 pbc="F F F"
C       -1.03858185      -2.22809410      -0.59706116
C        0.29652977      -1.50180244      -0.68408203
H       -1.68016052      -2.01177979       0.26410294
H       -1.02224922      -3.35046196      -0.72385025
H       -1.41589355      -1.87102699      -1.55406570
O        0.92520523      -1.10721970      -1.64899445
O        0.88601303      -1.22606850       0.55388641
H        1.82031059      -1.02598763       0.36714554
C        0.09243393       1.91722107       1.47063065
C        0.36823845       1.83182907       0.02638245
H       -0.61647415       2.65110970       1.69530487
H        1.05422592       2.19778252       1.99003601
H       -0.30637360       0.98183823       1.83036041
O        1.43149567       2.03766251      -0.44316101
O       -0.63519669       1.42301178      -0.84169579
H       -0.15954590       1.28201675      -1.70500183
