16
Properties=species:S:1:pos:R:3 pbc="F F F"
C        2.41708994      -0.34979248       0.13080978
C        1.77614212       0.99641132       0.09647369
H        2.44692898      -0.80309868       1.14029694
H        3.47384882      -0.21680737      -0.24311161
H        1.86452007      -0.92697239      -0.61521530
O        1.20221734       1.58854103      -0.83909988
O        1.85001326       1.63760662       1.32227993
H        1.51430154       2.53984928       1.22541904
C       -2.22979474      -1.17135525      -0.99549198
C       -2.05818748      -0.42741489       0.32507420
H       -3.35332680      -1.40170860      -1.08990669
H       -1.65286338      -2.13270283      -1.07994080
H       -1.88168252      -0.50689411      -1.80848980
O       -2.15616918      -0.92510986       1.41238022
O       -1.70639205       0.82274628       0.08089924
H       -1.50664818       1.27671337       0.93763542
