16
Properties=species:S:1:pos:R:3 pbc="F F F"
C        1.76898575      -0.12484932       1.11097336
C        0.67256927      -0.81967545       1.88574409
H        1.74290848      -0.40379333       0.03659439
H        2.75710678      -0.34308624       1.60377502
H        1.70783329       0.95033455       1.28563499
O        0.85175133      -1.95342636       2.33359528
O       -0.44883537      -0.12642860       2.15198708
H       -1.11679745      -0.64856720       2.55194855
C       -0.80460262       1.34841728      -1.57956886
C       -1.02858543      -0.02423859      -1.96229172
H       -0.05332947       1.44639587      -0.76737785
H       -1.70835400       1.77946663      -1.10325813
H       -0.34889126       1.91820526      -2.46281815
O       -0.82834816      -0.58584976      -3.02340698
O       -1.52591038      -0.73416901      -0.92886925
H       -1.63749504      -1.67875481      -1.13261414
