16
Properties=species:S:1:pos:R:3 pbc="F F F"
C       -1.09207785      -0.31152344      -0.59709740
C       -2.46347690      -0.94163704      -0.49285698
H       -0.37959981      -1.08975220      -0.54190063
H       -0.98470426       0.59081268       0.03990555
H       -0.93298674       0.14112663      -1.61897850
O       -2.70576000      -2.04253960      -0.02648544
O       -3.39238095      -0.09357071      -0.88561630
H       -4.27479744      -0.40850449      -0.69154930
C        2.00769496       1.25872612      -0.07246017
C        2.21100688      -0.01428986       0.78124619
H        1.13210750       0.86414337      -0.67940140
H        2.98037362       1.43689156      -0.67658997
H        1.72297025       2.07490540       0.60192299
O        2.71249080      -1.07670212       0.37551880
O        1.72620463       0.20069122       1.97574234
H        1.73293328      -0.58879089       2.50860977
