16
Properties=species:S:1:pos:R:3 pbc="F F F"
C       -0.40814209      -1.88261223       1.38681984
C        0.77875137      -1.01755905       1.84634304
H        0.09185600      -2.58642960       0.66290188
H       -1.24869728      -1.32458878       0.95727634
H       -0.81216812      -2.43566132       2.25679684
O        1.28631783      -1.08020210       2.88935375
O        1.34247780      -0.27151871       0.85493660
H        2.11716652       0.23237801       1.09450245
C       -1.15129662       0.75938225      -1.83185291
C        0.13014603       1.52202415      -1.49190617
H       -0.96213531       0.07336617      -2.58820152
H       -2.02664757       1.27315903      -2.16441727
H       -1.39385796       0.18250465      -0.95755863
O        1.21091080       1.22620201      -1.97731686
O        0.09618568       2.48518753      -0.55938625
H        0.94917107       2.84436035      -0.37830639
