16
Properties=species:S:1:pos:R:3 pbc="F F F"
C        0.36324501       0.38631868       2.03234720
C        0.83276176      -0.94057322       1.65362835
H        1.19962120       1.14258909       1.79299641
H        0.07698250       0.56686449       3.09494638
H       -0.40687561       0.80379534       1.28925562
O        2.00927734      -1.19361591       1.25772810
O       -0.16399765      -1.83995914       1.46928740
H        0.23435211      -2.47566938       0.88380003
C       -1.38898849       0.59195614      -1.73002219
C        0.01975441       0.69545650      -1.75142813
H       -1.81448936      -0.40191793      -1.68156672
H       -1.88451958       0.98438120      -2.58937883
H       -1.77692604       1.06695414      -0.81445551
O        0.70758247       1.64399672      -1.98302126
O        0.56592941      -0.47898817      -1.27302313
H        1.42626572      -0.55158186      -1.65109873
