16
Properties=species:S:1:pos:R:3 pbc="F F F"
C       -1.78166759       1.82128143      -0.16653395
C       -1.71685624       0.46342659       0.35358143
H       -2.68964863       2.16178799      -0.67341614
H       -0.98071891       1.96271515      -0.95017624
H       -1.61809945       2.50985813       0.68573761
O       -1.51285088       0.11055470       1.50312805
O       -1.94506574      -0.41782236      -0.66670275
H       -1.82818270      -1.27408409      -0.29817104
C        1.98282635      -0.50813246       0.86011887
C        1.64254367      -0.81011963      -0.56315756
H        2.42010260       0.50742006       0.99521208
H        2.90378189      -1.13663721       1.06392479
H        1.07984626      -0.69061804       1.56414557
O        1.31038988      -0.04095173      -1.45324802
O        1.50526702      -2.17586136      -0.67246246
H        1.22833502      -2.48283029      -1.58197594
