16
Properties=species:S:1:pos:R:3 pbc="F F F"
C       -0.97908401      -0.65918922      -1.55203152
C       -0.43201828      -1.97331619      -1.17890596
H       -0.97630310      -0.05743599      -0.67901516
H       -2.12302971      -0.81364441      -1.79631853
H       -0.45315361      -0.30294418      -2.45137882
O        0.36965942      -2.69437790      -1.77356815
O       -0.75733757      -2.28023911       0.12322044
H       -0.22824478      -3.06690788       0.47914886
C       -0.09983826       1.58366394       1.70333576
C        1.27480125       1.36917877       1.02181530
H       -0.39700699       0.64857864       2.23363972
H       -0.84119797       1.90509796       0.95146465
H       -0.07284546       2.47563553       2.41923523
O        2.27820778       0.91935539       1.60286140
O        1.28823662       1.60327530      -0.33603191
H        2.14917564       1.34321976      -0.76747370
