16
Properties=species:S:1:pos:R:3 pbc="F F F"
C       -0.56685638      -0.40293694       2.41329193
C       -1.69435024      -0.11830902       1.44649315
H       -0.67250925       0.21189690       3.31300354
H        0.42919338      -0.22635841       1.98942184
H       -0.66512513      -1.45465088       2.73297691
O       -2.81875682      -0.48474884       1.57884407
O       -1.26302505       0.64619446       0.38241196
H       -2.05093908       1.05432510       0.04837227
C        0.44579482      -0.10426903      -2.33907890
C        1.47598672      -0.01777077      -1.26031494
H       -0.21024239       0.76949883      -2.26996326
H       -0.14933717      -1.05006027      -2.16499138
H        1.02408242      -0.07350540      -3.31579208
O        1.66110396      -0.83736420      -0.37572479
O        2.27340579       0.99942207      -1.50051117
H        2.78157401       1.08859825      -0.67846680
