16
Properties=species:S:1:pos:R:3 pbc="F F F"
C        0.08335400       1.46973419       1.87874126
C        0.77523327       1.84298134       0.66309071
H       -0.39278603       2.34544373       2.25689983
H        0.78631496       1.01423073       2.62033367
H       -0.76698017       0.79707146       1.70234108
O        1.97846794       1.66513062       0.40098000
O       -0.08351517       2.33126068      -0.28442097
H        0.35779667       2.54412842      -1.11166668
C        0.09963608      -1.23421192      -0.35256672
C       -0.33940601      -2.11094761      -1.47339821
H       -0.72297764      -0.81361389       0.18002033
H        0.73051167      -0.40231133      -0.62901020
H        0.68642330      -1.85717201       0.33437252
O        0.38189030      -2.54051113      -2.35725117
O       -1.64141464      -2.25720024      -1.52740383
H       -1.93255472      -2.79399204      -2.30105305
