16
Properties=species:S:1:pos:R:3 pbc="F F F"
C       -0.35649776       2.16715717       1.39016473
C       -1.16686201       2.12498856       0.15574449
H        0.40015984       2.96439362       1.24550807
H        0.20812035       1.15728760       1.58963120
H       -1.01395702       2.33028603       2.27098608
O       -0.99312782       2.85041428      -0.82606858
O       -2.13238716       1.18770409       0.19091547
H       -2.45843863       1.04231739      -0.70672089
C        0.22505903      -1.83730173      -0.00850099
C        1.26180696      -1.86934137      -1.17310131
H        0.33071613      -2.77600145       0.51875579
H       -0.84449911      -1.71447563      -0.46539557
H        0.48163223      -0.84420204       0.51823938
O        1.20460367      -1.25156879      -2.16340733
O        2.22284079      -2.75042582      -0.84772038
H        2.63082743      -2.78124142      -1.68902969
