16
Properties=species:S:1:pos:R:3 pbc="F F F"
C        0.36757278       2.26616669       0.32981491
C       -1.16800690       1.91802216       0.22973633
H        0.36499405       3.04563904       1.11292267
H        0.75809097       2.71581078      -0.65256119
H        0.81966591       1.32090187       0.60026932
O       -1.63930893       0.87604332      -0.22063446
O       -1.98896599       2.97649384       0.59867477
H       -2.97967720       2.86471558       0.45146942
C        1.36229324      -2.93653679      -0.45114517
C        0.46594620      -1.82338715      -0.02659225
H        0.91596794      -3.46109772      -1.34786987
H        1.35662460      -3.60503769       0.38783264
H        2.39064407      -2.49924469      -0.61371994
O        0.66335678      -1.16614914       0.99380493
O       -0.62368393      -1.63912392      -0.83124924
H       -1.06550598      -0.85322380      -0.56072235
