16
Properties=species:S:1:pos:R:3 pbc="F F F"
C       -1.52795029       0.24090576      -1.62792969
C       -0.03327560       0.45863533      -1.95732117
H       -1.95176125      -0.23779106      -2.47391510
H       -2.08289909       1.14044762      -1.57201767
H       -1.71138954      -0.38240433      -0.73280334
O        0.50090981       1.46743965      -2.38963127
O        0.67215538      -0.72825813      -1.76767921
H        1.60304832      -0.49522972      -1.96458244
C        0.06097984      -1.06765556       1.79643822
C        0.65383720       0.35020447       1.68537712
H        0.43478394      -1.56250191       0.95442963
H       -1.01578903      -0.93875122       1.59409142
H        0.38048553      -1.54316330       2.72488213
O        0.35934258       1.18334007       0.82200241
O        1.62958717       0.63273811       2.59142494
H        2.02797508       1.48205376       2.31723595
