16
Properties=species:S:1:pos:R:3 pbc="F F F"
C        0.55888939      -1.73572922       1.99879932
C       -0.07837105      -0.34034348       1.73742199
H        0.06586647      -2.24924564       2.81030083
H        1.64373779      -1.58928299       2.16486835
H        0.51621819      -2.32837582       1.04344559
O        0.60372734       0.71632385       1.83944225
O       -1.25703239      -0.29307175       1.18162632
H       -1.43369675       0.64538383       1.16161442
C       -0.98171997       0.98006821      -2.06167412
C        0.44721603       1.12355423      -1.57855892
H       -1.27028656       1.86142540      -2.69712734
H       -1.74071503       0.89318275      -1.27083397
H       -0.98547363       0.12957001      -2.70980835
O        1.13912201       2.09466171      -1.55062103
O        0.94688797      -0.08238983      -1.18228245
H        1.82567978       0.17429161      -0.88661098
