16
Properties=species:S:1:pos:R:3 pbc="F F F"
C       -1.18714714      -1.94657040      -0.02939701
C       -1.15540504      -0.98086071      -1.19520473
H       -1.30921745      -2.97224712      -0.34484720
H       -2.11973381      -1.61444950       0.55458641
H       -0.20478439      -1.83330250       0.53934193
O       -0.72900200      -1.26194572      -2.33333588
O       -1.46034622       0.35455894      -0.89315462
H       -1.55217934       0.95659256      -1.67020082
C        0.65552521       1.42613411       1.38015366
C        1.52316475       1.30109596       0.19474792
H        0.94641495       0.74459267       2.24967194
H       -0.44249725       1.17900467       1.21701717
H        0.79016685       2.48908615       1.71809387
O        2.10379219       2.24702835      -0.30230713
O        1.68176460      -0.00351334      -0.22578812
H        2.45945930      -0.08520126      -0.85938835
