16
Properties=species:S:1:pos:R:3 pbc="F F F"
C        0.58298111       2.21668243      -1.27129173
C        0.61934090       0.74137878      -1.49669170
H        0.28718948       2.37613297      -0.20886421
H       -0.17918015       2.62808990      -1.93376541
H        1.52869034       2.64071655      -1.64666462
O       -0.13775063       0.06697845      -2.16657162
O        1.58230019       0.12510681      -0.80996799
H        1.41090393      -0.84313965      -1.00139236
C        0.15020370      -1.45003128       1.79361439
C       -1.24446106      -1.40457153       1.13689804
H        0.42350388      -0.37371254       1.99843502
H        0.83905983      -1.96415329       1.11549282
H        0.11610794      -2.02713585       2.71724796
O       -2.17008018      -2.21971130       1.26474476
O       -1.43108177      -0.30000687       0.37020779
H       -2.37773323      -0.21264076       0.13858604
