16
Properties=species:S:1:pos:R:3 pbc="F F F"
C       -1.19573784       1.89022923       0.15917587
C       -0.14585555       2.91932583      -0.00645447
H       -2.20632505       2.27081680      -0.02753448
H       -1.11535275       1.51145458       1.15423584
H       -1.03719556       1.01689625      -0.57184982
O       -0.20709169       4.03715420      -0.55642700
O        0.99367404       2.39348888       0.55431366
H        1.74110985       3.00380611       0.46938705
C        0.86085773      -2.11672401       0.60517883
C        0.04452598      -2.25012016      -0.56486511
H        0.44897771      -2.75094509       1.47465897
H        0.86822033      -1.06919003       0.93218613
H        1.91282487      -2.50992584       0.50405884
O       -0.45623636      -1.34686470      -1.21163559
O       -0.01810372      -3.53664494      -1.06043625
H       -0.48829317      -3.46274471      -1.85392761
