16
Properties=species:S:1:pos:R:3 pbc="F F F"
C       -0.03576469       1.09825516      -2.31080484
C        0.12246704      -0.38684845      -2.06715393
H        0.27392387       1.32461929      -3.39218116
H        0.51139641       1.69343185      -1.60519934
H       -1.07690048       1.35652542      -2.21994972
O       -0.62497139      -1.15838623      -1.43756580
O        1.18314934      -0.91310120      -2.72660518
H        1.27953339      -1.79049301      -2.43796301
C       -1.03549194      -0.70258713       2.45784616
C        0.07873344       0.32811737       2.12745523
H       -0.74822044      -1.24300003       3.37551928
H       -1.20214081      -1.47100639       1.66557074
H       -1.87944984      -0.02081680       2.73865843
O       -0.05591965       1.51057434       2.29853868
O        1.29794693      -0.18009567       1.79538584
H        1.91169357       0.55479431       1.73844194
