16
Properties=species:S:1:pos:R:3 pbc="F F F"
C       -1.40022659      -0.39044952      -1.66304970
C       -2.25668144      -0.01573563      -0.49891281
H       -0.38488007      -0.61461067      -1.21694756
H       -1.24436188       0.44685936      -2.40520477
H       -1.81541443      -1.28081226      -2.11501884
O       -2.30639458      -0.61751747       0.49273300
O       -2.98554230       1.08501244      -0.84733582
H       -3.58720779       1.29156113      -0.14795685
C        2.50612640      -0.71770859       0.72385979
C        1.59110832       0.46005154       1.02395058
H        2.15943909      -1.13356113      -0.26677132
H        2.46912766      -1.54476357       1.35072136
H        3.52158737      -0.40574551       0.51121330
O        0.96538544       1.15305805       0.24650192
O        1.59542656       0.71988964       2.36408997
H        1.17251587       1.56446266       2.44811821
