16
Properties=species:S:1:pos:R:3 pbc="F F F"
C       -1.26727962       2.06664276      -0.11440563
C       -1.71444225       1.07319069      -1.16687202
H       -2.23561525       2.60712814       0.04357815
H       -0.43623471       2.72142792      -0.38505077
H       -1.07322931       1.62167740       0.89092016
O       -2.86125302       0.80319595      -1.41322422
O       -0.67498779       0.48429871      -1.73213673
H       -1.08392596      -0.13853073      -2.40129805
C        2.01761651      -0.72459030       0.62810373
C        0.85636306      -1.55335045       0.99515057
H        2.91265130      -1.10546112       1.20119572
H        1.82700849       0.29943275       0.91154814
H        2.22928548      -0.65669060      -0.44519424
O       -0.30814266      -1.25588417       1.09184742
O        1.30097318      -2.82814980       0.99137878
H        0.51121879      -3.41435051       0.90445232
