16
Properties=species:S:1:pos:R:3 pbc="F F F"
C       -1.54299355       0.70418930      -1.70152855
C       -0.13166428       1.06656742      -1.52630711
H       -1.88040161      -0.21162701      -1.05253887
H       -1.78593445       0.51465511      -2.71557426
H       -2.15243149       1.52441883      -1.47315216
O        0.36544991       2.12897015      -1.16710567
O        0.66733742      -0.04669762      -1.77597046
H        1.62608528       0.20647621      -1.75951672
C        0.22893143      -1.59995937       1.80240250
C        1.07839775      -0.39958858       1.48785019
H       -0.61797905      -1.32982635       2.47831631
H        0.89849472      -2.35882044       2.29721260
H       -0.13839722      -2.07703304       0.84559727
O        2.28269768      -0.34170055       1.40683174
O        0.29599380       0.70534611       1.41224384
H        0.80644798       1.51463318       1.44124317
