16
Properties=species:S:1:pos:R:3 pbc="F F F"
C       -1.11820698       1.51270103      -0.15817547
C        0.17752075       2.08091164      -0.62583661
H       -1.90673923       2.28666878      -0.20063591
H       -1.03945541       1.20231819       0.93105078
H       -1.34357929       0.52150154      -0.65075612
O        0.86569691       1.57815361      -1.50882339
O        0.73718357       3.19355583      -0.04160833
H        1.56291103       3.30224419      -0.55228567
C       -0.62932301      -2.25504875       0.22395682
C        0.78533649      -2.06242943       0.51326132
H       -0.95509624      -3.30179596       0.23913527
H       -0.86475086      -1.74601746      -0.73733878
H       -1.26848030      -1.76286507       0.96717548
O        1.52481937      -2.82230949       1.14092493
O        1.28971577      -0.86577606       0.11766100
H        2.18246174      -0.86179543       0.34229088
