16
Properties=species:S:1:pos:R:3 pbc="F F F"
C       -0.52290344       2.54238892      -0.79416066
C       -1.67440987       1.73684120      -0.21504092
H       -0.94100571       3.32917786      -1.52645206
H       -0.03810596       1.75411415      -1.46772492
H        0.20126534       2.86968994      -0.09597749
O       -2.06799793       0.62488747      -0.58236885
O       -2.22597122       2.28937912       0.91862619
H       -2.92000675       1.71467590       1.22208023
C        0.95198917      -1.26388359       0.69477129
C        1.15107536      -2.64696884       0.10300958
H        1.89183426      -0.65587425       0.35515678
H        0.84750462      -1.32254791       1.74828422
H       -0.04466724      -0.85763931       0.34401596
O        0.25707436      -3.36945248      -0.11243480
O        2.48697281      -2.94959354      -0.08425796
H        2.64733410      -3.79517841      -0.50752747
