20
Properties=species:S:1:pos:R:3 pbc="F F F"
H        3.90100000       2.44500000       4.02500000
H        3.80100000       0.69000000       4.42200000
H        5.20300000       1.32300000       3.47800000
C        4.10900000       1.42100000       3.64400000
H        2.25200000       1.28500000       2.55600000
H        3.49600000       0.13000000       2.00000000
C        3.34100000       1.17700000       2.34200000
H        4.46900000       1.62500000       0.55100000
H        4.24700000       3.02700000       1.63700000
C        3.73300000       2.13800000       1.20700000
H        1.92800000       1.72600000       0.08500000
H        2.91400000       3.07200000      -0.57900000
C        2.53700000       2.61400000       0.36300000
H        1.37200000       3.27600000       2.08300000
H        0.69300000       3.74000000       0.49200000
C        1.64000000       3.64900000       1.07000000
H        2.49200000       5.45600000       0.18500000
H        1.56800000       5.73900000       1.70700000
H        3.21000000       5.00500000       1.77500000
C        2.26500000       5.04400000       1.19200000
