10
Properties=species:S:1:pos:R:3 pbc="F F F"
O        0.04300000       0.93700000       0.44400000
C        0.43600000       0.40600000       0.70300000
C        1.30600000       0.31700000       0.06400000
C        0.00800000       1.35700000       0.12500000
H        0.80200000       0.23100000       0.31900000
H        1.33000000       0.33800000       0.82700000
H        0.35900000       0.74500000       0.65200000
H        0.30100000       1.07300000       0.28100000
H        0.08300000       0.42300000       0.08800000
H        0.51200000       0.04500000       0.29700000
