6
Properties=species:S:1:pos:R:3 pbc="F F F"
C        0.43000000       0.42700000       0.75900000
O        1.10100000       1.33500000      -0.11400000
H        0.64600000       1.32300000      -0.96500000
H        0.93000000       0.42900000       1.75100000
H       -0.63300000       0.73500000       0.89700000
H        0.46100000      -0.60500000       0.34700000
