6
Properties=species:S:1:pos:R:3 pbc="F F F"
C        0.80000000       0.54500000       0.32800000
O        0.50800000       0.37300000       1.71100000
H       -0.24900000      -0.21300000       1.79000000
H        1.68500000       1.20800000       0.21100000
H       -0.06200000       1.00400000      -0.20100000
H        1.03600000      -0.44100000      -0.14500000
