6
Properties=species:S:1:pos:R:3 pbc="F F F"
O       -0.01341343       1.46903634      -0.75830269
H       -0.69753551       1.87272906      -0.22422409
H       -0.18653679       0.52943158      -0.69996452
O       -0.02396965      -1.23370695       0.34885979
H        0.87184620      -0.97550285       0.13189316
H        0.04961109      -1.66198611       1.20173645
