6
Properties=species:S:1:pos:R:3 pbc="F F F"
O       -0.36345863       1.55159521       0.16439438
H       -0.18290329       1.79134703       1.07332039
H       -0.23580551       0.60335779       0.13642311
O        0.17373085      -0.94197369      -0.53235054
H       -0.42874527      -1.68351316      -0.47428894
H        1.03717804      -1.32080841      -0.36749840
