6
Properties=species:S:1:pos:R:3 pbc="F F F"
O        0.25526810       0.12979117      -1.04905891
H        0.46263504      -0.51051074      -1.72967911
H        0.91132164       0.81805193      -1.15915680
O       -0.69466400      -0.48516971       1.43261147
H       -0.14503479      -0.32777810       0.66490555
H       -0.78953743       0.37561527       1.84038544
