6
Properties=species:S:1:pos:R:3 pbc="F F F"
O        0.63763428       0.49172974       0.72864771
H        0.89774704       1.25386047       0.21122217
H        0.46529579       0.84239388       1.60247087
O       -1.00856781      -1.01899910      -0.74079275
H       -0.55307388      -0.27805710      -0.34109402
H       -0.43903160      -1.29093742      -1.46045113
