6
Properties=species:S:1:pos:R:3 pbc="F F F"
O       -0.87732267       0.96416855      -0.77516556
H       -0.21159077       0.33766174      -0.49140358
H       -1.69784069       0.61779404      -0.42444420
O        0.96834469      -0.63661575       0.17509270
H        1.43252754      -0.09764481       0.81561852
H        0.38587856      -1.18535995       0.70030785
