6
Properties=species:S:1:pos:R:3 pbc="F F F"
O        0.13849258      -0.34535217       1.32277322
H        1.08291435      -0.44516373       1.20302463
H       -0.01241875       0.59808159       1.26454139
O       -0.37062454       0.43583870      -1.37903166
H       -0.29993820      -0.35311127      -1.91642952
H       -0.53842163       0.10972404      -0.49487948
