6
Properties=species:S:1:pos:R:3 pbc="F F F"
O       -0.72914505       0.01051140      -0.93638039
H       -0.52833366       0.11133766      -1.86683273
H       -1.17843246       0.82157135      -0.69857216
O        0.86564636      -0.08166313       1.47625351
H        1.21932220      -0.96000099       1.33601189
H        0.35094833       0.09823418       0.68951607
