6
Properties=species:S:1:pos:R:3 pbc="F F F"
O       -0.95688438       0.61590528      -0.07677841
H       -0.67977905       1.22505999      -0.76115608
H       -0.93148613       1.13228989       0.72878647
O        1.13894272      -1.25894189       0.06436920
H        1.00821114      -0.61544847      -0.63209152
H        0.42098999      -1.09886646       0.67686844
