6
Properties=species:S:1:pos:R:3 pbc="F F F"
O       -0.91850233       0.33536911       0.41556931
H       -0.53412008       0.51394653       1.27381897
H       -1.25507641       1.18214989       0.12246323
O        0.94829178      -1.00597191      -0.80973434
H        1.51759434      -0.23652649      -0.80068398
H        0.24181223      -0.78895950      -0.20144081
