6
Properties=species:S:1:pos:R:3 pbc="F F F"
O       -1.21805763       0.61726761      -0.33658218
H       -0.60113907       0.80017328      -1.04523849
H       -1.22850227       1.41946507       0.18552780
O        1.28387833      -0.99096632       0.11824799
H        1.18789864      -1.49821854       0.92429733
H        0.57592201      -0.34772062       0.15375900
