6
Properties=species:S:1:pos:R:3 pbc="F F F"
O       -0.40724373       1.00349426       0.15040970
H       -0.17913628       1.37528992       1.00244904
H        0.06338310       1.54635239      -0.48207855
O        0.48746872      -1.53693199      -0.17596436
H        0.38573837      -0.62108231       0.08307266
H       -0.35020065      -1.76711845      -0.57790375
