6
Properties=species:S:1:pos:R:3 pbc="F F F"
O       -0.40255737       0.53537083      -0.71880341
H       -0.71898842       0.56629753      -1.62166023
H       -0.71332359       1.35178375      -0.32748985
O        0.48347473      -1.01493478       1.20121956
H       -0.02585793      -0.46533680       0.60560608
H        1.37724495      -0.97317958       0.86112976
