6
Properties=species:S:1:pos:R:3 pbc="F F F"
O       -1.54520226       0.58358574      -0.27208233
H       -1.32378197       1.09427452      -1.05080128
H       -0.74066544       0.11116219      -0.05814743
O        0.94556808      -0.43922615       0.21237087
H        1.88023376      -0.24640465       0.28624630
H        0.78385544      -1.10340118       0.88241100
