6
Properties=species:S:1:pos:R:3 pbc="F F F"
O       -0.06305313       0.80181026       1.56070518
H        0.68304825       1.37752533       1.39304161
H       -0.11496353       0.24403191       0.78454781
O       -0.17544556      -0.93723106      -0.87765121
H        0.50355530      -1.08216000      -1.53657722
H       -0.83315277      -0.40397263      -1.32406616
