6
Properties=species:S:1:pos:R:3 pbc="F F F"
O        0.03065491      -0.88592404       1.03418064
H       -0.85435104      -0.71263444       1.35506725
H       -0.10026836      -1.36565232       0.21628571
O       -0.00265026       1.21392012      -0.93960381
H        0.85909939       1.25544643      -1.35420609
H        0.06751728       0.49484396      -0.31171989
