6
Properties=species:S:1:pos:R:3 pbc="F F F"
O       -0.16658592      -1.13439941      -0.28083801
H       -0.92728043      -1.70955086      -0.36314201
H       -0.06101036      -1.00959778       0.66230011
O        0.61158752       1.44550323       0.26826286
H       -0.33014679       1.56276131       0.14329147
H        0.87342834       0.84527779      -0.42987823
