6
Properties=species:S:1:pos:R:3 pbc="F F F"
O       -0.83385420       0.31103516      -1.29256749
H       -0.47360229       0.08303308      -0.43555784
H       -0.08189487       0.28295135      -1.88417554
O        0.08611822      -0.32699108       1.19122314
H        0.45388508       0.54473782       1.33637142
H        0.84934711      -0.89476585       1.08470821
