6
Properties=species:S:1:pos:R:3 pbc="F F F"
O       -1.44177055      -0.06880951      -0.78080130
H       -0.84930420       0.35297012      -1.40315008
H       -0.89871597      -0.24141693      -0.01169157
O        0.78003883      -0.11982727       0.97926426
H        1.17433167       0.74616623       0.87523603
H        1.23540878      -0.66907501       0.34114552
