6
Properties=species:S:1:pos:R:3 pbc="F F F"
O       -1.43664837      -0.62299347       0.39534569
H       -1.95337915      -0.82732582      -0.38405800
H       -0.69343233      -0.11827087       0.06501961
O        1.02103651       0.52045059       0.16659355
H        1.20545089       0.16531563      -0.70294952
H        1.85697258       0.88283157       0.46005821
