6
Properties=species:S:1:pos:R:3 pbc="F F F"
O        0.95838261       0.42572594       0.69513512
H        0.86570549       0.28790569      -0.24754524
H        1.75890350      -0.04415894       0.92881584
O       -1.53415298      -0.21631622      -0.26635742
H       -1.39566994      -0.17276096      -1.21248436
H       -0.65317726      -0.28039360       0.10243607
