6
Properties=species:S:1:pos:R:3 pbc="F F F"
O        1.19019508      -0.21199512      -0.13664627
H        0.81466484      -0.79593754      -0.79560089
H        2.03383446      -0.60785627       0.08197403
O       -1.49665070       0.88041306       0.39786530
H       -1.96225166       0.05941629       0.23845673
H       -0.57979965       0.67595816       0.21397400
