6
Properties=species:S:1:pos:R:3 pbc="F F F"
O        0.80623722      -1.16112709      -0.90144730
H        1.40236664      -1.40690422      -0.19401932
H        0.52808094      -0.27172089      -0.68277168
O       -0.57977962       0.82018280       0.43131828
H       -1.06704998       0.42544937       1.15449524
H       -1.08985758       1.59412384       0.19242477
