6
Properties=species:S:1:pos:R:3 pbc="F F F"
O        0.27390194       1.16836548       0.79024887
H       -0.68005753       1.19531822       0.71631241
H        0.58704090       1.67726517       0.04245377
O       -0.35766506      -1.29133415      -0.76338959
H       -0.16492558      -0.80769157       0.03983879
H        0.34170628      -1.94191742      -0.82546806
