24
Properties=species:S:1:pos:R:3 pbc="F F F"
He      -1.25715601       0.46499741       0.00000000
He      -1.39504635       0.48180425       0.00000000
He      -1.29888725      -1.16448605       0.00000000
He      -1.39236724      -1.27802849       0.00000000
He       1.29888630      -1.16448224       0.00000000
He       1.39236104      -1.27803373       0.00000000
He      -2.11507535      -1.66427076       0.00000000
X       -2.27899218      -1.74791753       0.00000000
He       1.25715733       0.46499169       0.00000000
He       1.39504766       0.48180038       0.00000000
He       0.00000465       2.30305386       0.00000000
He       0.00000581       2.55188203       0.00000000
He      -0.00000186       0.95691180       0.00000000
X        0.00000110       1.01352692       0.00000000
He      -0.00000389      -2.87917089       0.00000000
X       -0.00000263      -3.06291819       0.00000000
He      -1.95793879       0.85894102       0.00000000
X       -2.23555827       0.92914855       0.00000000
He      -0.00000513      -1.93015492       0.00000000
He      -0.00000235      -2.05957341       0.00000000
He       1.95793760       0.85893899       0.00000000
X        2.23555541       0.92915142       0.00000000
He       2.11506963      -1.66427064       0.00000000
X        2.27898645      -1.74792039       0.00000000
