40
Properties=species:S:1:pos:R:3 pbc="F F F"
H       -3.00091934       1.12916946       1.40790558
H       -4.41311646       1.14313889       2.44817352
H       -3.12199402       2.50379944       2.59315014
C       -3.33281517       1.39966965       2.42243099
H       -3.05396461       0.87245941       4.41584587
H       -3.00244141      -0.48260307       3.33674622
C       -2.65937424       0.55554962       3.47146225
H       -0.64814758       0.41401863       4.43694401
H       -0.96931458       1.79686356       3.35413170
C       -1.12387085       0.72685623       3.47412586
H       -0.67267227       0.33116150       1.36964989
H        0.73660278       0.24944496       2.69176865
C       -0.33098221      -0.05583572       2.38771343
H        0.18060303      -1.72920990       3.64600468
H       -1.46934891      -1.85354996       2.75447750
C       -0.36251831      -1.55997086       2.66485977
H       -0.19836044      -2.26220322       0.64684200
H        1.38082886      -1.80464935       1.34550667
H        0.53622818      -3.45777893       1.69683838
C        0.41163254      -2.31261063       1.55914497
H        2.41011429       1.36933899       0.65493584
H        3.30253601       2.02008820      -0.80095959
H        2.05206680       2.99543381       0.02353001
C        2.30332565       1.95743942      -0.25767899
H        0.28717041       1.20462418      -0.80711937
H        1.27052307       2.03596115      -2.19955444
C        1.30838013       1.33462524      -1.26436996
H        1.67489624      -0.73060989      -0.81670475
H        2.73898697      -0.03469849      -2.08794403
C        1.61231995      -0.09844398      -1.74955845
H        1.29812622      -1.85608482      -2.88776398
H       -0.26804733      -1.07866669      -2.45029640
C        0.80413818      -0.87477112      -2.77818203
H        0.42323303       0.78666687      -4.14509201
H        2.04954529       0.03691864      -4.31692171
C        0.95454788      -0.17578506      -4.14509392
H       -0.77517700      -1.16225052      -5.16294003
H        0.51496506      -0.42442703      -6.30038881
H        0.83805466      -1.93592072      -5.30115891
C        0.31438065      -0.97315979      -5.33048964
