40
Properties=species:S:1:pos:R:3 pbc="F F F"
H       -1.26990128      -3.75337410       0.72431946
H       -1.10675812      -3.50707245       2.39229202
H       -1.55783749      -2.07785034       1.43064117
C       -0.94609642      -3.00248909       1.47077560
H        0.86539268      -1.69466972       1.75360107
H        1.26120567      -3.30516434       1.22803879
C        0.51020432      -2.54131317       1.14478302
H       -0.37848473      -1.45248795      -0.58111954
H        0.31250000      -2.97690392      -0.83701706
C        0.48438454      -2.08101463      -0.31204224
H        1.91073990      -0.58952522      -0.15868378
H        2.63600349      -2.22418022      -0.63996124
C        1.81814957      -1.50592041      -0.81113815
H        1.83756828      -2.18295097      -2.84033012
H        0.72171593      -0.79564285      -2.58492851
C        1.70209503      -1.18740463      -2.33124161
H        2.68006325       0.70101738      -2.39682388
H        3.74204063      -0.86373901      -2.75381279
H        2.72910118      -0.17420197      -4.00932693
C        2.78752899      -0.25214386      -2.90756607
H        0.31146240       3.40364838       3.56755447
H       -0.94874954       2.23756981       4.27914047
H        0.81999969       1.85411072       4.25919724
C       -0.03681374       2.34600449       3.69832993
H        0.88725662       1.48073578       1.87986755
H       -0.59699631       0.59140778       2.43284225
C       -0.14272690       1.64138985       2.35972595
H       -0.51926041       3.26525879       1.10416031
H       -1.98015499       2.35659027       1.78317261
C       -0.98226738       2.30982780       1.32322311
H       -0.15059090       1.58697319      -0.51287460
H       -1.35408115       0.52686501       0.30443573
C       -1.11603165       1.55724525      -0.03599548
H       -3.18119144       1.78976440      -0.63912201
H       -2.07796288       2.98669434      -1.42597771
C       -2.16761875       1.94490242      -1.08214188
H       -2.51347828       1.38488770      -3.16193390
H       -0.83328247       1.15892792      -2.72152710
H       -2.25646019       0.00818062      -2.08751297
C       -1.90070820       1.03600311      -2.30483627
