40
Properties=species:S:1:pos:R:3 pbc="F F F"
H        0.66697860      -2.59778929       5.71783447
H        0.35578215      -1.02644444       4.89605522
H       -0.91051620      -2.21216202       5.22485161
C        0.12825489      -2.11389446       4.87397385
H        1.52863669      -2.71079922       3.46685600
H       -0.02223992      -3.82462907       3.53963852
C        0.43781948      -2.78357983       3.56259155
H        0.24812031      -0.92729425       2.22794724
H       -1.18547559      -1.98410511       2.34617996
C       -0.05748987      -2.02632236       2.31300545
H        1.34538412      -2.81178880       0.96757507
H       -0.22350883      -3.75078535       1.08907127
C        0.24408531      -2.73303556       1.05674362
H       -1.40717733      -1.86635494      -0.10835457
H        0.20426250      -1.03917313      -0.28180885
C       -0.27861500      -1.98604393      -0.19482422
H       -0.62847561      -3.42366719      -1.91338158
H       -0.27556384      -1.78783512      -2.34228516
H        1.08172941      -2.90597725      -1.80997849
C        0.00571418      -2.59538746      -1.59968948
H       -2.79168081       2.76899242      -0.04472733
H       -3.67001891       2.67271233      -1.66819763
H       -2.31041813       1.62319183      -1.31979370
C       -2.68826151       2.68899250      -1.12271118
H       -1.67305493       3.87162876      -2.72757149
H       -1.99465775       4.85754490      -1.21586227
C       -1.68259108       3.80410194      -1.58587074
H       -0.19918060       3.43009663      -0.04441071
H        0.37653112       4.42270565      -1.45151520
C       -0.21388030       3.51570797      -1.15616417
H       -0.37971914       1.32417870      -1.74169159
H        0.20043409       2.28893185      -2.97077751
C        0.30241251       2.20486355      -1.87200546
H        1.74847007       1.44520569      -0.44961739
H        2.39329004       2.68677521      -1.59245300
C        1.73330927       1.76961040      -1.54539490
H        1.74342990      -0.37187576      -2.29754257
H        2.18917155       0.91379166      -3.54160118
H        3.38212729       0.58244133      -2.22654724
C        2.27657676       0.60744762      -2.45755577
