40
Properties=species:S:1:pos:R:3 pbc="F F F"
H        1.56935573       2.24084902      -4.65416813
H        1.51935172       3.57377696      -3.46682835
H        3.01738334       2.57232928      -3.77812767
C        1.94181705       2.55651546      -3.67528820
H        1.46268725       2.20472312      -1.59597015
H        0.51910281       1.18577099      -2.69938183
C        1.53458762       1.61452293      -2.51815414
H        3.52404952       0.85495800      -2.10727882
H        2.75088668       0.06111711      -3.48065567
C        2.55458713       0.46544987      -2.43543053
H        1.05579591      -0.91132927      -1.53697300
H        2.48454452      -1.71645033      -1.75168037
C        2.14607263      -0.70704734      -1.49456215
H        2.17429948       0.47224122       0.40102673
H        2.01969600      -1.32221174       0.62460327
C        2.51163268      -0.53812480      -0.00393867
H        4.20660305      -0.64019036       1.29284477
H        4.26308632      -1.75241613      -0.20434189
H        4.51871300      -0.03951710      -0.40940857
C        3.93000627      -0.74360830       0.24421501
H       -0.57954645       0.61077780       2.92711449
H        0.87971473       1.31754827       2.08196831
H       -0.41547155       2.26151347       2.25104141
C       -0.21414518       1.16337609       2.06132603
H       -0.77037334       1.33934069      -0.09153271
H       -0.47851324      -0.33322734       0.46949768
C       -0.89175200       0.65180546       0.74909878
H       -2.75158858       0.23548728      -0.20557785
H       -3.03847575       1.20731711       1.26575851
C       -2.40288281       0.34383029       0.88059807
H       -2.13151360      -1.69108415       1.07085896
H       -2.16840577      -1.00849617       2.68099213
C       -2.66825581      -0.97321033       1.66885662
H       -4.58898544      -0.46577728       2.54327774
H       -4.65959644      -1.04433537       0.90926552
C       -4.20430660      -1.25035954       1.89450455
H       -4.16241074      -3.45993066       1.78266335
H       -4.18146706      -2.88997245       3.34957123
H       -5.65875959      -2.75880313       2.56666183
C       -4.61750460      -2.68715334       2.39354134
