40
Properties=species:S:1:pos:R:3 pbc="F F F"
H        5.06165886       1.58222961       0.70068240
H        4.82100391      -0.12186432       0.15949130
H        6.16042328       0.89429283      -0.47479248
C        5.07054901       0.92447472      -0.18114877
H        4.25156212       2.52692604      -1.49657726
H        4.52201271       0.94829559      -2.18771553
C        4.15572739       1.42324829      -1.27908492
H        2.36875534       1.65015030      -0.20377707
H        2.70121765      -0.07998276      -0.69425297
C        2.74288177       1.01184082      -1.08007598
H        1.74533844       2.14197922      -2.78526616
H        2.11885262       0.37168121      -3.04210591
C        1.79113960       1.13337326      -2.28439713
H        0.37019539      -0.27065659      -1.64744222
H        0.17097282       1.24679184      -0.80423164
C        0.33527565       0.80199432      -1.81528926
H       -1.81257915       0.88130951      -2.46422887
H       -0.91208458       2.34532928      -2.70313358
H       -0.58596039       0.85179710      -3.76148748
C       -0.79527092       1.23110580      -2.75795794
H       -1.15810299      -1.65587425       4.48277473
H       -1.46876621      -3.31254578       4.02439117
H        0.18926239      -2.73379135       4.21225357
C       -0.83370590      -2.44331360       3.86030650
H        0.01037788      -1.42688560       2.13296151
H       -0.62258816      -3.06889725       1.83514810
C       -0.81681061      -2.09573555       2.39225507
H       -2.38195896      -0.64664078       2.47571874
H       -3.03894997      -2.29003716       1.92547822
C       -2.18278694      -1.53759384       1.86429429
H       -1.28455067      -0.33394623       0.32501149
H       -1.89732361      -1.97716904      -0.24627423
C       -2.11653137      -1.05974007       0.35211873
H       -3.43068981      -0.40407753      -1.22607422
H       -4.27365541      -1.07145691       0.19032526
C       -3.42881107      -0.40593719      -0.10254359
H       -4.87318802       1.09237862       0.65107846
H       -3.29896069       1.14254379       1.42710710
H       -3.56422949       1.76854134      -0.23658466
C       -3.80964661       0.96588135       0.46304011
