40
Properties=species:S:1:pos:R:3 pbc="F F F"
H        0.20413017      -5.72713089      -1.41573334
H        0.10660744      -6.37687683       0.34667397
H       -1.16668129      -5.09251213      -0.31394005
C       -0.14465714      -5.49525452      -0.34041786
H        0.41384697      -3.89130402       1.06328392
H        1.79519844      -4.59192848       0.23299980
C        0.72027397      -4.23506737       0.04931450
H       -0.44034767      -2.62534523      -0.87876892
H        0.81196785      -3.36033058      -1.90602684
C        0.61332893      -2.99849319      -0.86231804
H        1.44128990      -1.50493431       0.37657738
H        2.66894722      -2.42117882      -0.69840813
C        1.66741371      -1.89720726      -0.62519073
H        1.20781136      -1.17267799      -2.66667175
H        0.43231010      -0.26371765      -1.23337555
C        1.38541603      -0.73412132      -1.54828072
H        2.26204872       1.25047112      -2.28281212
H        2.54437447       0.84046555      -0.58909225
H        3.39480019      -0.08320999      -1.84865379
C        2.47567940       0.39081383      -1.58027458
H       -1.02646065      -0.79013634       0.40364647
H        0.02763939      -0.92741585       1.84601021
H       -1.81056595      -0.87423897       2.09102631
C       -0.90408707      -0.49039078       1.44180107
H       -0.80370331       1.39020348       2.52719307
H        0.16326714       1.25455856       1.12032127
C       -0.81776047       1.01748085       1.50767136
H       -2.88867569       1.39141846       0.89562416
H       -1.65690422       1.45432281      -0.42311287
C       -1.86877632       1.73044205       0.60954094
H       -2.50684547       3.56398201      -0.21004486
H       -2.45459175       3.59786797       1.53840828
C       -1.90059853       3.23493385       0.67380714
H        0.10830116       3.82190704       1.42095757
H       -0.03759575       3.56968880      -0.43478775
C       -0.54971504       3.96081924       0.54116631
H        0.06708908       6.11202240       0.34453201
H       -1.30344009       5.64309883      -0.65774155
H       -1.41903877       5.87655830       1.17130280
C       -0.81125450       5.45232582       0.31376648
