40
Properties=species:S:1:pos:R:3 pbc="F F F"
H       -2.40416241       3.38620949       2.12157822
H       -0.75500202       3.09650230       2.75193787
H       -1.10337448       4.69346237       1.89839745
C       -1.31966686       3.62376213       1.94574547
H       -1.22207260       3.65368843      -0.20515442
H        0.33581066       3.20199966       0.61072159
C       -0.78439617       3.07946396       0.65476227
H       -1.02232933       1.04338264       1.20812607
H       -0.39598274       1.17497063      -0.39559937
C       -1.16770172       1.61699295       0.33172798
H       -3.31028748       1.28840637       0.67915726
H       -2.98886585       2.19656181      -0.84523964
C       -2.61604261       1.31325912      -0.20744896
H       -3.90088606      -0.13462639      -1.18772507
H       -2.31338310      -0.24440575      -1.76320267
C       -2.85773373      -0.08205223      -0.83198929
H       -2.37416363      -2.19989014      -0.43718910
H       -1.48529148      -0.96029282       0.63718796
H       -3.23737717      -1.24993706       0.92973328
C       -2.44641113      -1.22314072       0.14311218
H        1.45347309       0.86461449       1.85374451
H        2.94364452       0.10713577       2.58567238
H        3.15122604       1.61280823       1.74423599
C        2.50678158       0.69505882       1.74855804
H        2.79498768       0.88813019      -0.32504463
H        3.82774830      -0.37853050       0.28038597
C        2.80916500       0.10010338       0.38812256
H        0.73663044      -0.57037926       0.07099342
H        1.96622562      -1.80930901       0.54400063
C        1.81460094      -0.96049500      -0.08414078
H        1.86816597      -0.62323189      -2.32846451
H        2.98690319      -1.69699669      -1.72367477
C        1.92778873      -1.43556786      -1.57445335
H       -0.07828045      -2.19696808      -1.47296906
H        0.73559380      -2.65179443      -3.02028847
C        0.90024948      -2.49130058      -1.88737297
H        2.21611595      -4.30222511      -1.67723083
H        1.14537621      -3.82771397      -0.25801468
H        0.44883728      -4.67189312      -1.57029343
C        1.21408463      -3.92584896      -1.33242035
