40
Properties=species:S:1:pos:R:3 pbc="F F F"
H        0.00496292       3.12485886      -1.95632386
H       -1.56290436       3.87114334      -2.33348155
H       -1.16189575       3.44517136      -0.67178726
C       -1.09269333       3.12334824      -1.72552228
H       -2.77081108       1.79451752      -1.79425716
H       -1.82230759       1.86785507      -3.33448434
C       -1.72629356       1.82088470      -2.20817614
H       -0.55548477       0.47750854      -0.80923033
H        0.04096222       0.63257217      -2.36000967
C       -0.93347168       0.57600784      -1.88616085
H       -1.81966400      -0.74527359      -3.28985143
H       -0.78824234      -1.55030441      -2.13773012
C       -1.55533600      -0.79424667      -2.17186689
H       -2.42985535      -1.29681587      -0.39845276
H       -3.49917412      -0.28531456      -1.45275021
C       -2.79324150      -1.16057777      -1.42091942
H       -4.15738297      -2.83879662      -1.01508331
H       -3.83561134      -2.45128822      -2.77396870
H       -2.57891273      -3.26280022      -1.87245989
C       -3.38494682      -2.47686768      -1.77606487
H        0.38797760       2.53031349       2.77735424
H        1.90528488       2.57516861       3.59868050
H        1.98923302       2.03104401       2.00767374
C        1.38866043       1.96892166       2.87541676
H        0.17004395       0.49078369       4.12106323
H        1.94161224      -0.03369904       3.64296627
C        0.95138931       0.49939346       3.23923683
H       -0.36886024       0.20497894       1.53416204
H        0.13118935      -1.25710297       2.53955555
C        0.48894882      -0.34170341       2.08821440
H        1.05335426      -1.24301529       0.26216984
H        1.96409225       0.33078957       0.51006603
C        1.58861351      -0.62785149       1.07264662
H        3.21631432      -1.03855515       2.49258327
H        2.41025543      -2.50351334       1.78199291
C        2.77896118      -1.45546722       1.53327084
H        3.44834137      -1.84747887      -0.43887806
H        4.38298035      -0.49363136       0.40424156
H        4.66589165      -2.18098831       0.82609653
C        3.92808914      -1.47991562       0.52006912
