40
Properties=species:S:1:pos:R:3 pbc="F F F"
H        2.27776718      -1.46099007       2.60712814
H        1.24468231      -2.98203659       2.19184875
H        1.20106506      -1.63358438       1.03339386
C        1.35804367      -1.82174885       2.15285683
H       -0.74406815      -1.68601978       2.84135437
H        0.51972580      -1.29073739       4.10560036
C        0.25508881      -1.21431684       3.05435753
H        1.08603287       0.84459710       3.05323029
H       -0.50375748       0.73095989       3.83992004
C        0.08703613       0.37711954       2.97933197
H       -0.07815170       0.49576211       0.65492058
H       -1.61830330       0.44961071       1.59475899
C       -0.54857826       0.80549479       1.65336037
H        0.44075584       2.78448486       1.84313202
H       -0.84454155       2.54448986       0.57541656
C       -0.57217789       2.30713749       1.62438202
H       -1.32771873       2.68628025       3.64132690
H       -1.42156029       4.03516531       2.49458313
H       -2.54468536       2.55972767       2.28442383
C       -1.58966064       2.95817804       2.62783813
H       -0.80789948      -4.27196789      -1.42582130
H       -0.88692856      -2.61265874      -0.69956589
H       -1.85510635      -3.03337669      -2.03458405
C       -0.84592247      -3.15444732      -1.65190315
H        1.25426102      -2.82681489      -2.02819633
H        0.28732872      -3.25830030      -3.52064323
C        0.26724625      -2.73421955      -2.54094887
H       -0.74438667      -1.16394019      -3.73610878
H        1.05075264      -1.08532822      -3.76424217
C        0.11750412      -1.31381536      -3.09397697
H       -0.79949570       0.11187649      -1.70359993
H        0.90047836      -0.49203873      -1.37563515
C        0.22473717      -0.15912199      -2.16318893
H        1.71899796       0.91488385      -2.97432327
H        0.15448189       1.35634947      -3.74914551
C        0.68160248       1.16461325      -2.77419853
H        1.11314583       3.32767105      -2.58589363
H       -0.40269279       2.83702803      -1.86226845
H        1.28757095       2.47107744      -1.13551903
C        0.60729408       2.43296337      -2.03334427
