40
Properties=species:S:1:pos:R:3 pbc="F F F"
H       -0.08574677       3.93509865      -1.69396424
H       -0.21483803       4.44054413      -0.04545951
H        1.36366844       4.54062271      -0.82770741
C        0.48313904       3.93320847      -0.72519600
H        1.57014275       2.44332123       0.46117616
H        0.02829361       1.93700600      -0.15670764
C        0.95669365       2.52703285      -0.42154932
H        2.43345451       2.40793610      -2.03105402
H        0.77106476       1.61463737      -2.28053355
C        1.59467602       1.83618546      -1.59039581
H        1.22691631      -0.32655907      -1.00342226
H        2.65849876      -0.01018906      -2.18858981
C        2.10074043       0.37899971      -1.22574782
H        4.03455544       0.69483376      -0.32663870
H        2.71749973       0.79484558       0.75706553
C        3.09243107       0.20045471      -0.07312679
H        3.73909569      -1.65700340      -0.85700798
H        4.13074112      -1.48596573       0.92322421
H        2.48972797      -1.81879234       0.35911489
C        3.39742565      -1.26842690       0.12820911
H        0.56685543      -0.34765434       3.59498739
H       -1.05195618       0.17446518       3.17718172
H       -0.73677635      -1.56760788       3.53030348
C       -0.33137321      -0.66612434       3.02930927
H        0.08799744      -0.00531578       1.04232883
H        0.45730114      -1.71126556       1.20861483
C       -0.23975086      -0.92797661       1.53747869
H       -2.10978556      -0.07064247       1.12111092
H       -2.18170166      -1.84535408       1.60073566
C       -1.64259338      -1.07506752       0.91965437
H       -1.08265495      -0.77769852      -1.19060695
H       -1.45531464      -2.46776199      -0.66201353
C       -1.70754337      -1.37509346      -0.56627977
H       -3.54681921      -0.26132011      -0.60979402
H       -3.04709005      -1.14914322      -2.14832187
C       -3.16658449      -1.19017982      -1.02120376
H       -3.62280846      -3.20635605      -0.77910936
H       -4.34678364      -2.20440865       0.53659964
H       -5.19595814      -2.23846817      -0.94042099
C       -4.13481426      -2.20465851      -0.56225455
