40
Properties=species:S:1:pos:R:3 pbc="F F F"
H       -1.93391919       0.17782974      -0.56464767
H       -3.41950083       0.10073280       0.40734673
H       -2.41214871       1.61182404       0.47605515
C       -2.40310144       0.52172089       0.34388542
H       -0.64675677       0.26875496       1.55168915
H       -2.06278300       0.50197601       2.43583870
C       -1.68995476      -0.07608986       1.56098747
H       -2.99623346      -1.93930817       1.88774490
H       -1.46372294      -1.90995979       2.70627594
C       -1.93176246      -1.59707260       1.67852974
H       -1.56195199      -2.38122177      -0.26807976
H       -0.10686302      -2.11438370       0.62865067
C       -1.11748099      -2.50569916       0.68779373
H       -1.01721025      -3.96078396       2.14979935
H       -2.08581972      -4.44052410       0.86524773
C       -1.18489051      -3.99081135       1.04977798
H       -0.29537034      -5.10490131      -0.54420471
H        0.94391942      -4.21691608       0.33169746
H        0.14347267      -5.79346466       1.08117676
C        0.01261020      -4.82787418       0.43602180
H       -1.20240378       4.25552559      -2.66607380
H       -1.51120484       3.29632759      -1.22233772
H       -0.36046672       4.77143478      -1.13434601
C       -0.77515912       3.93170547      -1.75222206
H       -0.05422974       2.09513855      -2.75440025
H        1.06220007       3.54646873      -2.90984249
C        0.39257526       2.95262909      -2.13289452
H        0.67831755       2.15327263      -0.11764526
H        1.60935307       3.48200989      -0.40742493
C        1.23091865       2.60984612      -0.97265625
H        1.97487020       0.91910744      -2.06041622
H        3.10549116       2.31925201      -2.00705814
C        2.38152981       1.72973251      -1.43942451
H        3.90426874       0.31892776      -0.65622330
H        3.61437178       1.84152222       0.22031021
C        3.11500168       1.01863289      -0.30018806
H        2.78262663      -0.25454140       1.46064377
H        1.45087528       0.93845749       1.20292282
H        1.61318874      -0.49266052       0.08148766
C        2.21734238       0.24345779       0.66625023
