40
Properties=species:S:1:pos:R:3 pbc="F F F"
H       -5.71408653      -2.11793041      -0.29381686
H       -5.75110817      -0.49549484      -0.97242641
H       -4.75911522      -1.81361389      -1.73717904
C       -5.07874298      -1.36297417      -0.78865272
H       -4.30082130      -0.87601089       1.13679123
H       -3.25173187      -1.86642361       0.10225785
C       -3.88966942      -0.96890831       0.10151643
H       -3.71606445       1.19283581       0.04989082
H       -3.38125992       0.37509823      -1.50777245
C       -3.23092461       0.34216118      -0.37432510
H       -1.55309486       0.15777397       1.10591722
H       -1.33368492      -0.47937298      -0.55980980
C       -1.76046181       0.35278320       0.02443486
H       -1.73418045       2.49328423      -0.01514107
H       -0.04772949       1.68166065       0.43915254
C       -1.05306435       1.67007256      -0.25090563
H       -0.37736893       2.97748852      -1.86638141
H        0.20180321       1.30021286      -2.14600682
H       -1.53190613       1.60595322      -2.35225654
C       -0.62278366       1.87277031      -1.68888879
H        1.40649033      -2.50382757       2.90313029
H        0.74913406      -1.22807980       3.88056874
H       -0.25312042      -1.82617378       2.50474763
C        0.79994583      -1.62031841       2.84373903
H        0.86460495       0.48007870       2.18242025
H        2.47135353      -0.10435390       2.61998415
C        1.50112152      -0.41306496       2.07899308
H        0.94465065      -0.80107021       0.02153677
H        2.24511337      -1.75416660       0.60539132
C        1.83036232      -0.75185966       0.62847632
H        2.25767708       1.18929100      -0.03338063
H        3.59626961       0.42142391       1.01410699
C        2.82625008       0.25573349       0.12949473
H        4.08675575      -1.12635326      -1.04790759
H        3.04820824      -0.03849792      -2.04005599
C        3.67674446      -0.07770538      -1.15499377
H        5.73665810       0.66732216      -0.51632392
H        5.42824936       0.52924538      -2.31812000
H        4.71836090       1.87814140      -1.36712408
C        4.95111275       0.78286648      -1.34107995
