40
Properties=species:S:1:pos:R:3 pbc="F F F"
H       -0.38859367      -3.28812408       4.92955399
H        0.31936455      -1.93078041       4.11205292
H       -1.28924561      -2.37865257       3.71216965
C       -0.35091591      -2.79164124       3.89416885
H        1.06147957      -3.99376869       3.00056076
H       -0.61393738      -4.55717659       2.52288437
C        0.05248833      -3.68381500       2.74544907
H       -0.56348610      -2.98763847       0.70543289
H        0.96624756      -3.97257614       0.93116760
C        0.38314438      -3.14608002       1.33797455
H        0.39664841      -1.15368843       1.78905487
H        2.11496162      -1.91223907       2.04662323
C        1.14894104      -1.82000732       1.35536957
H        2.21377373      -2.19681358      -0.37833405
H        0.63961411      -1.33442307      -0.74044418
C        1.45456314      -1.46737289      -0.08849525
H        3.04576683      -0.08299637       0.65631485
H        2.68174934       0.16401672      -1.13159180
H        1.59662437       0.72930527       0.13045883
C        2.22538948      -0.15960693      -0.11938095
H       -3.09351158       1.79658508       1.22640610
H       -3.77403069       0.82986259      -0.05864906
H       -2.94702339       0.00431061       1.23799133
C       -2.87024498       0.92306519       0.62697983
H       -0.74748993       1.04442024       0.61638641
H       -1.48255539       0.10983276      -0.68919373
C       -1.58870888       1.03963470      -0.15587425
H       -1.74350357       3.02990150      -0.50369072
H       -2.51866150       2.16978264      -1.85540009
C       -1.54725838       2.16439438      -1.19752121
H       -0.12731552       1.21742439      -2.65841866
H        0.61622238       2.14157104      -1.31751251
C       -0.18391609       2.15615654      -2.05875015
H       -0.88734818       3.14575386      -3.81789017
H       -0.16866875       4.33805084      -2.65321350
C       -0.10464668       3.29182434      -3.08376312
H        1.40718269       2.05785370      -3.89604378
H        1.28763199       3.81946182      -4.53868103
H        2.05175018       3.51095581      -2.93595886
C        1.32744217       3.17330170      -3.69805717
