40
Properties=species:S:1:pos:R:3 pbc="F F F"
H       -1.48282528      -1.75801659       1.25143194
H       -0.77251244      -0.13485527       0.92096043
H       -1.21504974      -1.21174049      -0.44790649
C       -0.78122282      -1.21190071       0.58095312
H        0.48176908      -2.95783424       0.33200836
H        1.28747416      -1.53277969      -0.17432117
C        0.60730171      -1.91007233       0.60343075
H        0.81067801      -2.23353386       2.71338463
H        1.64851189      -0.77798653       2.22800159
C        1.42564631      -1.78534889       1.88687515
H        2.32327318      -3.62340736       1.87976313
H        3.09460402      -2.68540192       0.74217939
C        2.72635889      -2.64627647       1.79948282
H        3.96774244      -1.05136490       2.32849407
H        3.23304796      -1.88684654       3.80414009
C        3.75776911      -2.07626534       2.80013227
H        5.57947493      -2.36653137       3.81180954
H        4.81079149      -3.81646919       3.52072525
H        5.59248400      -3.07943916       2.23784733
C        4.96419096      -2.83296204       3.05901432
H       -2.10485554      -0.48568535      -4.15993214
H       -3.40892410       0.92895508      -4.29136467
H       -2.09262824       0.83307076      -5.39383078
C       -2.29246497       0.56290054      -4.39260244
H       -0.35948944       1.16406822      -3.62864614
H       -1.65777636       2.52756119      -3.89473391
C       -1.48170924       1.47558403      -3.57760596
H       -1.86716366       0.59249687      -1.59126806
H       -3.06969786       1.91490555      -2.15571761
C       -2.01874542       1.61980057      -2.12087893
H       -0.19935560       2.33966827      -1.12152910
H       -1.32656670       3.50887680      -1.74749804
C       -1.28526878       2.55980873      -1.18716216
H       -1.94977069       1.68340492       0.69350910
H       -1.20733929       3.32834435       0.81298018
C       -1.83726692       2.66133690       0.25143003
H       -4.06109571       2.98710442      -0.15147352
H       -3.50026083       3.44097137       1.40589809
H       -3.15606260       4.48965454       0.01180363
C       -3.18308377       3.44628716       0.36023235
