40
Properties=species:S:1:pos:R:3 pbc="F F F"
H       -2.44073105       4.70365715      -0.08354759
H       -1.09227371       5.90876961       0.21358109
H       -1.77878571       5.63743782      -1.44345856
C       -1.50325775       5.12695122      -0.45951843
H       -0.09841156       4.33437538      -1.94118881
H        0.50434494       4.39817238      -0.38182640
C       -0.44726181       4.12699318      -0.91168022
H       -1.72713852       2.54137611      -1.42853355
H       -1.11028671       2.67034721       0.44865227
C       -0.90499878       2.67751122      -0.66804123
H        1.16267395       2.18916893      -0.54935074
H        0.06056595       0.88769341      -0.20699120
C        0.23781967       1.70912170      -0.87904739
H        0.37863159       1.96114540      -3.02809525
H        1.51543045       0.74535942      -2.24226761
C        0.48735809       1.11237907      -2.29117584
H       -0.20579529      -0.92827797      -2.05738068
H       -1.45695877       0.27691650      -2.71628189
H       -0.19591522      -0.36363029      -3.72669029
C       -0.41374207      -0.06490898      -2.74292374
H       -2.32863426      -0.77112770       3.26887703
H       -1.04656982      -1.90962029       3.58397675
H       -0.60215378      -0.34232140       2.83128738
C       -1.40236664      -1.17367172       2.88468552
H       -2.07184792      -2.56650543       1.37134552
H       -1.95177269      -0.79708672       0.86905289
C       -1.47217560      -1.61893654       1.48885536
H        0.50974274      -1.07361031       0.67758942
H       -0.28421402      -2.43498421      -0.05974007
C       -0.06519699      -1.99964333       0.93517685
H        0.99208450      -2.61464310       2.84714127
H        0.32122421      -4.02774239       1.75260925
C        0.81013489      -2.98255730       1.77065277
H        2.81126404      -2.21002960       1.17465973
H        2.87527466      -3.79687309       2.07349777
C        2.28480148      -3.16298103       1.25136757
H        1.70901108      -3.45222092      -0.90666199
H        3.36215591      -3.85827446      -0.56316566
H        2.20770264      -4.96116829      -0.02666664
C        2.37038422      -3.89680290      -0.12891960
