40
Properties=species:S:1:pos:R:3 pbc="F F F"
H        1.84468746      -3.55563736      -1.16180182
H        0.67339420      -2.54554367      -0.08436918
H        0.08201981      -3.40959358      -1.61262798
C        0.92831802      -2.84855461      -1.15523577
H        2.26410007      -1.11837006      -1.38158083
H        1.74291229      -1.90466881      -3.04088902
C        1.38023376      -1.58652496      -1.98653221
H       -0.08339119      -0.22618484      -1.06894970
H       -0.58958817      -0.95920181      -2.48645782
C        0.23595810      -0.55368042      -2.04101372
H        1.77890587       0.91810608      -2.33640480
H        1.00476837       0.32967949      -3.77693033
C        0.78093624       0.65571976      -2.76792598
H       -1.01265812       1.71002388      -3.29355454
H       -0.41689110       2.20680618      -1.72399759
C       -0.08170319       1.95088387      -2.78246927
H        1.55167770       3.46824837      -2.91348410
H        0.86101532       2.97157288      -4.48344374
H       -0.16850948       4.09165382      -3.48056793
C        0.53609371       3.20965576      -3.40222263
H       -2.58147335      -0.04747391       0.83584261
H       -3.69735479      -1.45262337       1.20732784
H       -3.78331423       0.18585396       2.15446329
C       -3.10833073      -0.55526733       1.64696741
H       -2.80514145      -1.73649597       3.52113867
H       -1.43974781      -1.92334747       2.28203440
C       -2.15269279      -1.21040726       2.78256750
H       -0.80191708      -0.64916229       4.32023668
H       -2.02698612       0.66437912       4.01306295
C       -1.39646530      -0.13944435       3.50222826
H       -0.82917786       1.32838440       1.91342354
H        0.18368912       1.41137123       3.41899633
C       -0.33210850       0.72122192       2.71261930
H        0.96953869      -1.07172775       2.61695528
H        0.29116726      -0.64792442       0.99566078
C        0.73021412      -0.23361588       1.99262476
H        2.87885475      -0.29438972       1.52418423
H        1.90941048       1.23677635       1.06859493
H        2.56042290       1.12433243       2.65639830
C        2.11914539       0.48513603       1.81510592
