40
Properties=species:S:1:pos:R:3 pbc="F F F"
H        0.69911957      -0.37995791       3.29704618
H        0.65552521      -2.04840159       3.13447618
H        2.10616302      -1.00932550       2.47861814
C        0.99770546      -1.16139638       2.58760691
H       -0.67533493      -0.93168378       1.47025108
H        0.75011826      -0.18310595       0.66524935
C        0.31334877      -1.06270623       1.18489170
H        0.33279228      -3.28861785       0.98044157
H        1.68905640      -2.38728285       0.20806217
C        0.57273483      -2.37556791       0.37894630
H       -1.00594711      -3.16689563      -0.83470917
H       -0.43280983      -1.55331898      -1.35531521
C       -0.08311272      -2.54653144      -1.00979662
H        0.08364677      -3.13666344      -2.96228886
H        1.75908852      -2.76885509      -2.19643903
C        0.73285675      -3.24113703      -2.07932138
H        1.52269363      -5.29337454      -2.65497684
H        1.18832397      -5.05726528      -0.93437719
H       -0.11640549      -5.18980885      -2.10462236
C        0.84138489      -4.75994587      -1.92355466
H        1.63289070       3.88916731      -0.78117037
H        1.35913086       5.01553345       0.55598450
H        2.86100769       4.12411451       0.52587366
C        1.77742577       4.02919054       0.29914808
H        1.48940277       1.91206980       0.63860607
H        1.23097992       3.04794836       2.21518230
C        1.08007240       2.88607502       1.08360720
H       -1.03233719       3.57950783       1.27813005
H       -0.81782722       1.88196135       1.43340588
C       -0.39832497       2.78315830       0.89518070
H       -0.46775246       3.48474312      -1.17593861
H       -0.21539688       1.65586233      -0.98381186
C       -0.78171349       2.56739998      -0.59805727
H       -2.82238388       3.14071846      -0.10426617
H       -2.70716667       2.55613232      -1.80294466
C       -2.31347656       2.35467958      -0.70205069
H       -2.39498901       0.28003502      -1.00682020
H       -2.60592079       0.60708523       0.71202707
H       -3.94244003       0.82936144      -0.51101971
C       -2.86219978       0.91710782      -0.30122614
