40
Properties=species:S:1:pos:R:3 pbc="F F F"
H       -1.58190441      -2.16302490       4.42211342
H       -1.16106415      -0.46570969       4.66142273
H       -2.68881130      -1.01270676       3.66937447
C       -1.58124352      -1.18819427       3.89508438
H       -0.72909451      -0.17937851       2.30575371
H        0.26199341      -1.44771576       2.88871765
C       -0.77646923      -1.21189117       2.62739754
H       -2.36385345      -1.85377884       1.53734589
H       -1.08621883      -3.15793991       1.75856400
C       -1.33074665      -2.09038925       1.49829102
H       -0.83656025      -0.63571167      -0.08248520
H        0.45414257      -1.92630768       0.26486492
C       -0.64106846      -1.72075272       0.19163132
H       -2.31188774      -2.59142494      -0.89334011
H       -0.76540852      -2.17218781      -1.83149147
C       -1.22011948      -2.66459656      -0.91539764
H       -1.35826874      -4.64341736       0.09383202
H       -0.99547672      -4.70746803      -1.72274113
H        0.29969692      -4.21289253      -0.58229446
C       -0.79750347      -4.12856865      -0.77500534
H        1.72826195      -0.28514481      -1.80740547
H        3.48583221       0.22806358      -1.50790119
H        2.83609867      -1.17279053      -0.67540550
C        2.54539490      -0.14022064      -1.02541447
H        1.10111523       0.46669579       0.53890038
H        2.81034756       0.74883270       0.86523819
C        2.07605839       0.81425095       0.05421638
H        2.81592751       2.44894600      -0.92097473
H        1.87542820       2.93190384       0.48721981
C        1.82453251       2.23085785      -0.40605736
H        0.92174625       1.84688568      -2.33785915
H       -0.30961132       2.09951973      -1.00147724
C        0.65385628       2.39536667      -1.40582371
H        0.38356304       4.51886368      -0.67933941
H        1.15297222       4.30748558      -2.29701519
C        0.36304569       3.90750885      -1.64094830
H       -1.02058125       3.62928391      -3.20701408
H       -1.79637146       3.91708374      -1.45752525
H       -1.21285725       5.15676117      -2.40347290
C       -1.02481174       4.12382126      -2.18367386
