40
Properties=species:S:1:pos:R:3 pbc="F F F"
H       -0.99384832      -0.85795593       4.10436153
H        0.40049887      -0.10561562       4.98461819
H       -1.02945232       0.86123466       4.64866447
C       -0.43437958       0.03013992       4.18504143
H       -0.42836523       0.06654358       2.01368046
H        0.86710739       1.14962959       2.71428013
C        0.28148127       0.23153687       2.83578396
H        0.99191666      -1.85981083       2.84738350
H        2.17959785      -0.58487511       3.37862682
C        1.40048504      -0.84640694       2.64633942
H        1.35177040      -1.01494789       0.44754314
H        2.40095806       0.23446655       1.08604240
C        2.02647972      -0.77589417       1.28790092
H        3.92949200      -1.79879379       1.91557789
H        2.61677074      -2.81248665       1.10954571
C        3.11868668      -1.79628944       1.09081078
H        2.90861797      -1.50283241      -1.04543257
H        4.53234482      -0.87716103      -0.30090618
H        4.16989040      -2.59593868      -0.66926622
C        3.70147991      -1.70256042      -0.26776123
H        0.10904312       3.81123543      -0.34373760
H       -1.10214138       3.32374954      -1.67719221
H       -1.50634336       3.06717110      -0.13331985
C       -0.56104231       2.99780846      -0.71837234
H        0.74709988       1.49638176      -1.64040470
H        0.58066177       1.41173935       0.17677593
C       -0.03375530       1.56711197      -0.82112694
H       -1.76231289       0.49009132      -0.29608774
H       -0.63706017      -0.54823303      -1.04737139
C       -1.03542805       0.49496841      -1.10775280
H       -2.40445328       1.64679337      -2.30818367
H       -1.18624401       0.69662285      -3.29888201
C       -1.83165598       0.67278862      -2.43031120
H       -2.16545010      -1.45232201      -2.62991047
H       -3.54575038      -0.57587433      -1.76774311
C       -2.75523472      -0.53045082      -2.61689091
H       -4.28766012      -1.38653755      -3.95203304
H       -4.11451483       0.40748405      -3.74869633
H       -2.94399595      -0.53180695      -4.79390430
C       -3.55528235      -0.50064468      -3.85769224
