34
Properties=species:S:1:pos:R:3 pbc="F F F"
C       -0.75179100      -1.46274757      -1.55060577
H       -0.04312611      -2.27618217      -1.67165756
H       -1.04605103      -1.53902245      -0.51385498
H       -1.61909676      -1.62707710      -2.16287041
C        0.00084782      -0.21842575      -1.98794746
H        0.32190704      -0.43268394      -3.05165863
H        0.88507652       0.00010300      -1.39459038
C       -0.94995594       0.98029709      -2.00432396
H       -1.47905922       1.20192528      -1.06029892
H       -0.33601570       1.87998390      -2.24663544
C       -2.00198650       0.93918610      -3.11559677
H       -2.13681602       1.99018478      -3.49075699
H       -1.74295330       0.30334854      -4.03382492
C       -3.40779448       0.41671371      -2.65601540
H       -4.18668318       0.96098518      -3.29253769
H       -3.61016369       0.66369247      -1.61065865
H       -3.63378620      -0.61964226      -2.86452866
C        2.12510395      -2.07957268       2.14226913
H        1.99425697      -3.12571335       2.00504303
H        3.11337948      -1.77858543       1.74654007
H        2.09497738      -1.92081833       3.23664093
C        1.08849335      -1.31306839       1.41303253
H        0.10439682      -1.62265015       1.84682846
H        1.13051033      -1.62677383       0.36570740
C        1.19941616       0.17847443       1.50368500
H        2.08545685       0.56497955       1.00228119
H        0.28668404       0.61984062       0.90558243
C        1.14907455       0.74858475       2.93651581
H        0.14673996       0.56692886       3.30266571
H        1.72890663       0.03023529       3.61271667
C        1.75762177       2.12553406       3.14025879
H        1.63710499       2.53772354       4.17443848
H        1.20538712       2.84391785       2.51236725
H        2.88991356       2.09035873       2.86167145
