34
Properties=species:S:1:pos:R:3 pbc="F F F"
C       -1.87431145       1.01434326       2.28656673
H       -2.10789680       1.27888775       3.34972382
H       -0.82472801       0.72987795       2.24620152
H       -2.02275085       1.81537294       1.52071953
C       -2.75361633      -0.19534588       1.93231487
H       -3.77783394       0.20926619       1.73245335
H       -2.83333588      -0.84096575       2.84499550
C       -2.18113708      -1.10844612       0.89316559
H       -1.13559723      -1.32070065       1.13518524
H       -2.72436714      -2.14041710       0.91044426
C       -2.29802132      -0.54420853      -0.47716236
H       -3.31898308      -0.27789831      -0.75306988
H       -1.55617714       0.25571775      -0.55542564
C       -1.87651634      -1.58564281      -1.50555420
H       -1.74052048      -1.09798193      -2.44161558
H       -2.73444557      -2.34703493      -1.49990654
H       -0.99899101      -2.20558167      -1.14006710
C        3.38846779       0.22194481       0.88325405
H        4.37142754       0.60115099       1.28439331
H        2.79528999      -0.13310337       1.78468037
H        3.73509026      -0.60650730       0.28909302
C        2.63206291       1.40609789       0.26106739
H        3.16155624       1.82136965      -0.63323498
H        2.51292419       2.22573233       1.03719997
C        1.20395088       1.06218290      -0.25764942
H        0.69488525       0.31314182       0.27033806
H        0.59378815       2.01275969      -0.18947697
C        1.15215492       0.57092428      -1.73951530
H        0.07672310       0.35949945      -1.96425247
H        1.42815208       1.45804548      -2.35669231
C        2.10912132      -0.53282642      -2.17742348
H        1.96525002      -0.65258837      -3.29434204
H        1.81995583      -1.50686121      -1.71250629
H        3.11836433      -0.26024055      -1.96395302
