34
Properties=species:S:1:pos:R:3 pbc="F F F"
C        1.06406784       1.98794937       0.21240759
H        2.03849030       1.43709373      -0.02614546
H        0.30440903       1.56064701      -0.42997122
H        1.25781059       3.00524139      -0.16154289
C        0.78891754       2.04214764       1.74480581
H       -0.03747368       2.64686298       1.98396063
H        1.64112282       2.57774544       2.19588804
C        0.56490517       0.71391153       2.45563555
H       -0.35702515       0.21430206       2.11403990
H        1.42354584       0.13989830       2.04250193
C        0.65846443       0.74229860       3.99078703
H        0.89096260      -0.25298691       4.35287809
H        1.50932503       1.46587229       4.33826494
C       -0.59951401       1.37527275       4.61792803
H       -0.65820503       1.04591894       5.69687891
H       -1.48208332       0.89555049       4.09883928
H       -0.69945335       2.42860985       4.29464102
C       -0.78086948      -0.56855416      -4.31613731
H       -0.57039452       0.35566425      -4.88238716
H       -0.92312050      -1.40832365      -5.02099848
H       -1.79053593      -0.28538251      -3.86403346
C        0.39337921      -0.76760459      -3.27850819
H        0.51291084       0.03215575      -2.46874022
H        1.40439224      -0.63352871      -3.88976574
C        0.40300560      -2.07046843      -2.50204015
H       -0.10249519      -2.84785938      -3.03871822
H        1.46439171      -2.34134698      -2.44380951
C       -0.27079773      -1.89780569      -1.17426825
H        0.08452988      -2.80960894      -0.63222933
H        0.16389847      -0.97522402      -0.70991802
C       -1.78788471      -1.88788295      -1.30030251
H       -2.39575768      -1.81266129      -0.34547567
H       -2.04618549      -2.95190644      -1.68495750
H       -2.06672764      -1.15599513      -1.96947050
