34
Properties=species:S:1:pos:R:3 pbc="F F F"
C        1.56302452      -0.15132809      -2.43968773
H        1.14469528      -0.70155907      -3.31297112
H        0.90248489       0.67399311      -2.14877129
H        2.60697365       0.21202374      -2.64850235
C        1.70544243      -1.13577175      -1.27638054
H        2.36551857      -1.97850037      -1.56196594
H        0.73304749      -1.64185047      -1.13685036
C        2.17647934      -0.44666862       0.03146744
H        3.31016541      -0.36706161       0.01071930
H        1.61751175       0.53457546       0.04121399
C        1.97227287      -1.23724651       1.25369644
H        0.93040657      -1.46993542       1.41251564
H        2.35975838      -2.26353884       1.07299042
C        2.61072540      -0.68610096       2.55948257
H        2.17075920      -1.18842030       3.47536087
H        2.39381790       0.39484215       2.67550659
H        3.78600121      -0.74218369       2.44941330
C       -1.60277939       2.96260929       0.58171844
H       -2.43121910       3.68336868       0.29441452
H       -1.25845528       3.23333931       1.58689499
H       -0.80567360       3.15228748      -0.20016479
C       -2.15958977       1.65799427       0.30780792
H       -2.80342293       1.70561504      -0.66304207
H       -2.83219337       1.31840992       1.18741608
C       -1.15200424       0.45720673       0.12783051
H       -0.67237663       0.55009270      -0.87102318
H       -0.40614700       0.43440914       1.02073860
C       -1.93017197      -0.81895828       0.11421013
H       -1.17511559      -1.60703564      -0.01654625
H       -2.51254654      -0.91690063       1.11203957
C       -2.89890862      -0.83183289      -1.08056355
H       -3.40923023      -1.82481337      -0.91575718
H       -2.50207329      -0.80443954      -2.09332657
H       -3.79708862      -0.15662289      -0.94996452
