34
Properties=species:S:1:pos:R:3 pbc="F F F"
C        3.00915933      -1.27169800      -1.88799667
H        3.15657687      -1.68470478      -0.87516212
H        2.81531024      -2.17758751      -2.52783966
H        3.84336925      -0.62598991      -2.20180607
C        1.77086425      -0.49282074      -1.95357800
H        1.60876203       0.25329208      -1.06108761
H        0.91687441      -1.15605640      -1.92582512
C        1.70460916       0.41303349      -3.19418526
H        2.50810409       1.17366409      -3.02951336
H        1.93232608      -0.20381927      -4.12186050
C        0.34865808       1.18650055      -3.41250038
H        0.43757081       1.73389244      -4.33906460
H       -0.59201872       0.57978916      -3.43221188
C        0.14753819       2.31301498      -2.39369488
H       -0.52177703       3.03595543      -2.86413097
H        1.01670623       2.88170815      -2.16184235
H       -0.30859351       1.87051392      -1.44893074
C       -0.58126593      -2.25141907       3.41096497
H       -0.56882095      -3.35882759       3.53076935
H        0.46562219      -1.82554531       3.39297104
H       -1.12543058      -1.79027653       4.32191849
C       -1.22926962      -2.03739262       2.11517715
H       -2.24193335      -2.37993431       2.11856079
H       -0.72153294      -2.53402805       1.29360390
C       -1.29325771      -0.52198124       1.74055290
H       -0.26814246      -0.06630516       1.46359634
H       -2.01900983      -0.53983498       0.93548203
C       -1.82543397       0.42810440       2.78734016
H       -2.82850122       0.01513672       3.14154434
H       -1.17222142       0.39454365       3.73155403
C       -2.02967381       1.87438202       2.31145096
H       -2.31602740       2.59222603       3.14896011
H       -2.90791321       1.89086151       1.60104752
H       -1.13121510       2.28162956       1.78581047
