27
Properties=species:S:1:pos:R:3 pbc="F F F"
C        5.37900000      -0.00300000       2.83200000
H        5.74500000      -0.97100000       2.42300000
H        6.22700000       0.72000000       2.81600000
O        4.95300000      -0.17700000       4.17500000
H        4.23500000      -0.81800000       4.15900000
C        4.22400000       0.54200000       1.97800000
H        4.60600000       0.65700000       0.93800000
H        3.39000000      -0.19200000       1.94700000
C        3.69500000       1.90800000       2.45200000
H        4.57300000       2.53000000       2.74400000
H        3.06800000       1.77900000       3.36100000
C        2.91800000       2.68000000       1.37200000
H        3.54800000       2.73300000       0.45600000
H        2.77100000       3.72600000       1.72300000
C        1.54600000       2.08500000       1.00800000
H        1.51200000       1.94100000      -0.09500000
H        1.42100000       1.08500000       1.47700000
C        0.38000000       2.99700000       1.42900000
H        0.54900000       4.01500000       1.01200000
H        0.38600000       3.08300000       2.53900000
C       -1.00500000       2.51100000       0.97000000
H       -1.17300000       1.47900000       1.35200000
H       -1.77300000       3.16800000       1.44200000
C       -1.21600000       2.53700000      -0.54800000
H       -2.26200000       2.25900000      -0.80100000
H       -1.01800000       3.55400000      -0.94900000
H       -0.53400000       1.82100000      -1.05400000
