10
Properties=species:S:1:pos:R:3 pbc="F F F"
O        0.06500000       0.27300000       1.02200000
C        0.55100000       1.15900000       0.52100000
C        0.17600000       0.05700000       0.35000000
C        0.17800000       0.84400000       0.04900000
H        0.06200000       0.77100000       0.34300000
H        1.19500000       0.59900000       0.28500000
H        0.11300000       0.93900000       0.54500000
H        0.72500000       0.49800000       1.07400000
H        0.08700000       0.05900000       1.17200000
H        0.58600000       1.48300000       0.99200000
