10
Properties=species:S:1:pos:R:3 pbc="F F F"
O        0.54900000       0.78900000       0.75000000
C        0.20500000       0.17300000       0.22500000
C        0.43500000       0.76500000       0.04200000
C        0.45800000       0.96500000       0.37500000
H        0.08200000       0.53400000       0.05400000
H        0.16100000       0.17400000       0.04600000
H        0.06500000       0.20500000       0.19100000
H        0.51500000       1.34100000       0.59600000
H        0.54000000       0.25300000       0.06800000
H        0.68600000       0.47300000       0.02200000
