9
Properties=species:S:1:pos:R:3 pbc="F F F"
C        1.09200000       0.81400000       1.01300000
O        0.01200000       0.34800000       1.80300000
H       -0.17800000      -0.54700000       1.51400000
H        1.98600000       0.16400000       1.16500000
H        1.35400000       1.85000000       1.33100000
C        0.65300000       0.80400000      -0.44700000
H        0.42500000      -0.22800000      -0.78500000
H       -0.25600000       1.42900000      -0.57900000
H        1.45600000       1.21600000      -1.09300000
