10
Properties=species:S:1:pos:R:3 pbc="F F F"
O        0.95400000       0.24200000       0.71100000
C        0.07900000       0.24500000       1.04800000
C        0.08000000       0.09000000       0.00900000
C        0.35100000       0.73900000       0.70700000
H        0.01300000       1.63400000       1.09900000
H        0.15000000       0.44300000       0.36700000
H        0.46200000       0.53900000       0.53400000
H        1.01400000       0.05600000       0.10200000
H        0.42000000       0.00300000       0.31400000
H        0.63100000       0.16600000       1.41400000
