10
Properties=species:S:1:pos:R:3 pbc="F F F"
O        0.98200000       1.91000000      -0.86200000
C        0.65500000       0.96300000      -0.15800000
C       -0.75600000       0.49400000      -0.08000000
C        1.65600000       0.22300000       0.66700000
H       -1.39800000       1.18500000      -0.66800000
H       -1.09400000       0.48900000       0.97400000
H       -0.83700000      -0.52800000      -0.50600000
H        2.43000000      -0.20900000       0.00300000
H        2.13900000       0.93100000       1.37200000
H        1.16000000      -0.58800000       1.23800000
